<?xml version="1.0" encoding="UTF-8"?>

<!-- generated on 2024-09-03 01:38:44 by Eclipse SUMO netconvert Version 1.20.0
<configuration xmlns:xsi="http://www.w3.org/2001/XMLSchema-instance" xsi:noNamespaceSchemaLocation="http://sumo.dlr.de/xsd/netconvertConfiguration.xsd">

    <input>
        <osm-files value="train_files/intersection/hard/osm_files/map(59).osm"/>
    </input>

    <output>
        <output-file value="train_files/intersection/hard/outputs/map(59)_dict/map(59)/map(59).net.xml"/>
    </output>

    <projection>
        <proj.utm value="true"/>
    </projection>

    <building_defaults>
        <default.junctions.keep-clear value="false"/>
    </building_defaults>

</configuration>
-->

<net version="1.20" junctionCornerDetail="5" limitTurnSpeed="5.50" xmlns:xsi="http://www.w3.org/2001/XMLSchema-instance" xsi:noNamespaceSchemaLocation="http://sumo.dlr.de/xsd/net_file.xsd">

    <location netOffset="-452097.28,-5415447.42" convBoundary="0.00,0.00,2543.49,2663.66" origBoundary="2.346486,48.890198,2.380912,48.914276" projParameter="+proj=utm +zone=31 +ellps=WGS84 +datum=WGS84 +units=m +no_defs"/>

    <type id="highway.cycleway" priority="1" numLanes="1" speed="5.56" allow="bicycle" oneway="0" width="2.00"/>
    <type id="highway.footway" priority="1" numLanes="1" speed="2.78" allow="pedestrian" oneway="1" width="2.00"/>
    <type id="highway.pedestrian" priority="1" numLanes="1" speed="2.78" allow="pedestrian" oneway="1" width="2.00"/>
    <type id="highway.primary" priority="12" numLanes="2" speed="27.78" disallow="tram rail_urban rail rail_electric rail_fast ship container cable_car subway aircraft wheelchair scooter drone" oneway="0"/>
    <type id="highway.service" priority="1" numLanes="1" speed="5.56" allow="pedestrian delivery bicycle" oneway="0"/>
    <type id="railway.subway" priority="18" numLanes="1" speed="27.78" allow="subway" oneway="1"/>
    <type id="railway.tram" priority="17" numLanes="1" speed="13.89" allow="tram" oneway="1"/>

    <edge id=":10604318559_0" function="internal">
        <lane id=":10604318559_0_0" index="0" allow="bicycle" speed="5.56" length="2.58" width="2.00" shape="906.87,956.48 904.29,956.42"/>
    </edge>
    <edge id=":10604318560_0" function="internal">
        <lane id=":10604318560_0_0" index="0" allow="bicycle" speed="5.56" length="9.95" width="2.00" shape="904.12,964.21 913.56,961.05"/>
    </edge>
    <edge id=":1088594665_0" function="internal">
        <lane id=":1088594665_0_0" index="0" allow="tram" speed="13.89" length="13.29" shape="918.92,910.02 932.21,909.89"/>
    </edge>
    <edge id=":1088594665_1" function="internal">
        <lane id=":1088594665_1_0" index="0" disallow="pedestrian tram rail_urban rail rail_electric rail_fast ship container cable_car subway aircraft wheelchair scooter drone" speed="8.33" length="4.29" shape="922.01,911.53 922.08,910.05 922.22,909.04 922.46,908.05 922.85,906.61"/>
        <lane id=":1088594665_1_1" index="1" disallow="pedestrian tram rail_urban rail rail_electric rail_fast ship container cable_car subway aircraft wheelchair scooter drone" speed="8.33" length="4.29" shape="925.21,911.63 925.27,910.36 925.40,909.49 925.61,908.64 925.94,907.41"/>
        <lane id=":1088594665_1_2" index="2" disallow="pedestrian tram rail_urban rail rail_electric rail_fast ship container cable_car subway aircraft wheelchair scooter drone" speed="8.33" length="4.29" shape="928.41,911.72 928.46,910.66 928.58,909.95 928.76,909.24 929.04,908.22"/>
    </edge>
    <edge id=":1088594836_0" function="internal">
        <lane id=":1088594836_0_0" index="0" allow="pedestrian bus bicycle" speed="8.33" length="2.97" shape="955.59,907.61 955.46,910.58"/>
    </edge>
    <edge id=":1088594836_1" function="internal">
        <lane id=":1088594836_1_0" index="0" allow="tram" speed="13.89" length="5.34" shape="953.39,909.30 958.73,909.15"/>
    </edge>
    <edge id=":11080717962_0" function="internal">
        <lane id=":11080717962_0_0" index="0" allow="bicycle" speed="5.56" length="0.25" width="2.00" shape="958.07,359.49 958.04,359.75"/>
    </edge>
    <edge id=":11080717962_1" function="internal">
        <lane id=":11080717962_1_0" index="0" allow="bicycle" speed="5.56" length="0.30" width="2.00" shape="956.05,359.59 956.08,359.29"/>
    </edge>
    <edge id=":11080717965_0" function="internal">
        <lane id=":11080717965_0_0" index="0" allow="bicycle" speed="5.56" length="0.30" width="2.00" shape="960.63,334.40 960.60,334.70"/>
    </edge>
    <edge id=":11080717965_1" function="internal">
        <lane id=":11080717965_1_0" index="0" allow="bicycle" speed="5.56" length="0.30" width="2.00" shape="958.61,334.50 958.64,334.20"/>
    </edge>
    <edge id=":11080717967_0" function="internal">
        <lane id=":11080717967_0_0" index="0" allow="bicycle" speed="5.56" length="0.30" width="2.00" shape="967.08,269.23 967.05,269.53"/>
    </edge>
    <edge id=":11080717967_1" function="internal">
        <lane id=":11080717967_1_0" index="0" allow="bicycle" speed="5.56" length="0.30" width="2.00" shape="965.06,269.34 965.09,269.04"/>
    </edge>
    <edge id=":11080717968_0" function="internal">
        <lane id=":11080717968_0_0" index="0" allow="bicycle" speed="5.56" length="0.30" width="2.00" shape="972.58,209.73 972.57,210.03"/>
    </edge>
    <edge id=":11080717968_1" function="internal">
        <lane id=":11080717968_1_0" index="0" allow="bicycle" speed="5.56" length="0.25" width="2.00" shape="970.57,209.88 970.59,209.63"/>
    </edge>
    <edge id=":11080717971_0" function="internal">
        <lane id=":11080717971_0_0" index="0" allow="bicycle" speed="5.56" length="0.10" width="2.00" shape="973.21,193.59 973.21,193.59"/>
    </edge>
    <edge id=":11080717971_1" function="internal">
        <lane id=":11080717971_1_0" index="0" allow="bicycle" speed="5.56" length="0.10" width="2.00" shape="971.21,193.53 971.21,193.53"/>
    </edge>
    <edge id=":11080717973_0" function="internal">
        <lane id=":11080717973_0_0" index="0" allow="bicycle" speed="5.56" length="0.29" width="2.00" shape="975.44,97.38 975.44,97.67"/>
    </edge>
    <edge id=":11080717973_1" function="internal">
        <lane id=":11080717973_1_0" index="0" allow="bicycle" speed="5.56" length="0.23" width="2.00" shape="973.44,97.63 973.44,97.40"/>
    </edge>
    <edge id=":11080717974_0" function="internal">
        <lane id=":11080717974_0_0" index="0" allow="bicycle" speed="5.56" length="0.29" width="2.00" shape="972.66,60.37 972.66,60.08"/>
    </edge>
    <edge id=":11080717974_1" function="internal">
        <lane id=":11080717974_1_0" index="0" allow="bicycle" speed="5.56" length="0.23" width="2.00" shape="974.66,60.10 974.66,60.33"/>
    </edge>
    <edge id=":11080717977_0" function="internal">
        <lane id=":11080717977_0_0" index="0" allow="bicycle" speed="5.56" length="0.19" width="2.00" shape="974.88,21.26 974.88,21.45"/>
    </edge>
    <edge id=":11080717977_1" function="internal">
        <lane id=":11080717977_1_0" index="0" allow="bicycle" speed="5.56" length="0.27" width="2.00" shape="972.88,21.44 972.88,21.17"/>
    </edge>
    <edge id=":11930257958_0" function="internal">
        <lane id=":11930257958_0_0" index="0" allow="bicycle" speed="5.56" length="3.62" width="2.00" shape="916.97,896.99 916.70,898.03 916.51,898.74 916.39,899.47 916.33,900.54"/>
    </edge>
    <edge id=":11930257958_1" function="internal">
        <lane id=":11930257958_1_0" index="0" allow="bicycle" speed="2.89" length="1.31" width="2.00" shape="916.97,896.99 916.31,897.61 915.92,897.70"/>
    </edge>
    <edge id=":11930257958_4" function="internal">
        <lane id=":11930257958_4_0" index="0" allow="bicycle" speed="2.89" length="1.61" width="2.00" shape="915.92,897.70 915.77,897.74 915.34,897.38 915.02,896.54"/>
    </edge>
    <edge id=":11930257958_2" function="internal">
        <lane id=":11930257958_2_0" index="0" allow="bicycle" speed="5.56" length="4.02" width="2.00" shape="914.33,900.49 914.39,899.30 914.52,898.49 914.73,897.70 915.02,896.54"/>
    </edge>
    <edge id=":11930257958_3" function="internal">
        <lane id=":11930257958_3_0" index="0" allow="bicycle" speed="2.89" length="1.46" width="2.00" shape="914.33,900.49 914.84,899.75 915.35,899.51"/>
    </edge>
    <edge id=":11930257958_5" function="internal">
        <lane id=":11930257958_5_0" index="0" allow="bicycle" speed="2.89" length="1.46" width="2.00" shape="915.35,899.51 915.84,899.77 916.33,900.54"/>
    </edge>
    <edge id=":11930257960_0" function="internal">
        <lane id=":11930257960_0_0" index="0" allow="bus bicycle" speed="7.37" length="20.54" shape="928.22,842.98 931.15,838.32 935.61,836.64 940.19,837.98 943.46,842.40"/>
        <lane id=":11930257960_0_1" index="1" disallow="pedestrian tram rail_urban rail rail_electric rail_fast ship container cable_car subway aircraft wheelchair scooter drone" speed="6.86" length="17.56" shape="931.31,843.83 933.39,838.35 935.60,836.46 937.96,838.17 940.45,843.48"/>
        <lane id=":11930257960_0_2" index="2" disallow="pedestrian tram rail_urban rail rail_electric rail_fast ship container cable_car subway aircraft wheelchair scooter drone" speed="4.31" length="5.85" shape="934.39,844.68 935.09,842.86 935.82,842.23 936.61,842.80 937.44,844.57"/>
    </edge>
    <edge id=":12009176828_0" function="internal">
        <lane id=":12009176828_0_0" index="0" allow="bicycle" speed="5.56" length="4.16" width="2.00" shape="897.93,958.21 897.93,962.38"/>
    </edge>
    <edge id=":135578017_0" function="internal">
        <lane id=":135578017_0_0" index="0" allow="bus bicycle" speed="13.89" length="19.30" shape="934.75,949.81 929.10,949.27 925.29,948.19 921.49,947.17 915.84,946.81"/>
        <lane id=":135578017_0_1" index="1" disallow="pedestrian tram rail_urban rail rail_electric rail_fast ship container cable_car subway aircraft wheelchair scooter drone" speed="13.89" length="19.30" shape="934.78,946.61 929.09,946.07 925.25,944.99 921.42,943.97 915.73,943.62"/>
    </edge>
    <edge id=":135578017_2" function="internal">
        <lane id=":135578017_2_0" index="0" disallow="pedestrian tram rail_urban rail rail_electric rail_fast ship container cable_car subway aircraft wheelchair scooter drone" speed="7.90" length="13.99" shape="934.81,943.41 930.93,942.84 928.20,941.22 926.61,938.53 926.16,934.78"/>
        <lane id=":135578017_2_1" index="1" disallow="pedestrian tram rail_urban rail rail_electric rail_fast ship container cable_car subway aircraft wheelchair scooter drone" speed="6.38" length="8.76" shape="934.84,940.21 932.38,939.86 930.65,938.85 929.64,937.19 929.36,934.87"/>
    </edge>
    <edge id=":135578017_4" function="internal">
        <lane id=":135578017_4_0" index="0" allow="bus bicycle" speed="8.33" length="20.22" shape="919.20,954.64 919.76,934.60"/>
        <lane id=":135578017_4_1" index="1" allow="bus bicycle" speed="8.33" length="20.22" shape="919.20,954.64 919.86,948.67 921.08,944.67 922.29,940.66 922.96,934.69"/>
    </edge>
    <edge id=":135578017_6" function="internal">
        <lane id=":135578017_6_0" index="0" allow="bus bicycle" speed="7.22" length="11.84" shape="922.39,954.73 922.07,951.20 920.87,948.71 918.79,947.25 915.84,946.81"/>
        <lane id=":135578017_6_1" index="1" disallow="pedestrian tram rail_urban rail rail_electric rail_fast ship container cable_car subway aircraft wheelchair scooter drone" speed="8.60" length="17.21" shape="925.59,954.82 925.10,949.82 923.29,946.29 920.17,944.22 915.73,943.62"/>
    </edge>
    <edge id=":135578017_8" function="internal">
        <lane id=":135578017_8_0" index="0" disallow="pedestrian tram rail_urban rail rail_electric rail_fast ship container cable_car subway aircraft wheelchair scooter drone" speed="8.33" length="20.21" shape="928.79,954.91 928.46,948.91 927.47,944.85 926.49,940.78 926.16,934.78"/>
        <lane id=":135578017_8_1" index="1" disallow="pedestrian tram rail_urban rail rail_electric rail_fast ship container cable_car subway aircraft wheelchair scooter drone" speed="8.33" length="20.21" shape="928.79,954.91 929.36,934.87"/>
    </edge>
    <edge id=":135578024_0" function="internal">
        <lane id=":135578024_0_0" index="0" allow="bus bicycle" speed="6.33" length="7.71" shape="916.53,922.90 918.80,922.44 920.44,921.53 921.44,920.18 921.82,918.39"/>
    </edge>
    <edge id=":135578024_1" function="internal">
        <lane id=":135578024_1_0" index="0" allow="bus bicycle" speed="13.89" length="18.87" shape="916.53,922.90 922.10,922.52 925.93,922.56 929.77,922.85 935.36,923.21"/>
    </edge>
    <edge id=":135578024_2" function="internal">
        <lane id=":135578024_2_0" index="0" disallow="pedestrian tram rail_urban rail rail_electric rail_fast ship container cable_car subway aircraft wheelchair scooter drone" speed="7.91" length="4.00" shape="916.66,926.10 920.24,925.34 920.54,925.17"/>
    </edge>
    <edge id=":135578024_3" function="internal">
        <lane id=":135578024_3_0" index="0" disallow="pedestrian tram rail_urban rail rail_electric rail_fast ship container cable_car subway aircraft wheelchair scooter drone" speed="13.89" length="18.44" shape="916.66,926.10 922.15,925.72 925.92,925.76 929.70,926.05 935.21,926.40"/>
        <lane id=":135578024_3_1" index="1" disallow="pedestrian tram rail_urban rail rail_electric rail_fast ship container cable_car subway aircraft wheelchair scooter drone" speed="13.89" length="18.44" shape="916.79,929.30 922.20,928.93 925.92,928.97 929.64,929.25 935.06,929.60"/>
    </edge>
    <edge id=":135578024_10" function="internal">
        <lane id=":135578024_10_0" index="0" disallow="pedestrian tram rail_urban rail rail_electric rail_fast ship container cable_car subway aircraft wheelchair scooter drone" speed="7.91" length="8.55" shape="920.54,925.17 922.83,923.81 924.42,921.53 925.02,918.48"/>
    </edge>
    <edge id=":135578024_5" function="internal">
        <lane id=":135578024_5_0" index="0" disallow="pedestrian tram rail_urban rail rail_electric rail_fast ship container cable_car subway aircraft wheelchair scooter drone" speed="8.33" length="16.44" shape="919.77,934.40 920.15,929.63 920.79,926.40 921.43,923.16 921.82,918.39"/>
        <lane id=":135578024_5_1" index="1" disallow="pedestrian tram rail_urban rail rail_electric rail_fast ship container cable_car subway aircraft wheelchair scooter drone" speed="8.33" length="16.44" shape="922.96,934.49 923.35,929.72 923.99,926.49 924.63,923.25 925.02,918.48"/>
        <lane id=":135578024_5_2" index="2" disallow="pedestrian tram rail_urban rail rail_electric rail_fast ship container cable_car subway aircraft wheelchair scooter drone" speed="8.33" length="16.44" shape="922.96,934.49 923.85,929.65 925.59,926.53 927.33,923.42 928.22,918.57"/>
    </edge>
    <edge id=":135578024_8" function="internal">
        <lane id=":135578024_8_0" index="0" disallow="pedestrian tram rail_urban rail rail_electric rail_fast ship container cable_car subway aircraft wheelchair scooter drone" speed="7.89" length="13.97" shape="926.16,934.58 926.82,930.85 928.55,928.24 931.34,926.76 935.21,926.40"/>
        <lane id=":135578024_8_1" index="1" disallow="pedestrian tram rail_urban rail rail_electric rail_fast ship container cable_car subway aircraft wheelchair scooter drone" speed="6.37" length="8.74" shape="929.36,934.67 929.77,932.36 930.86,930.74 932.62,929.82 935.06,929.60"/>
    </edge>
    <edge id=":135612245_0" function="internal">
        <lane id=":135612245_0_0" index="0" disallow="tram rail_urban rail rail_electric rail_fast ship container cable_car subway aircraft wheelchair scooter drone" speed="3.64" length="4.53" shape="1209.54,929.01 1210.73,929.74 1211.15,930.50 1210.78,931.29 1209.65,932.11"/>
    </edge>
    <edge id=":135612262_0" function="internal">
        <lane id=":135612262_0_0" index="0" disallow="tram rail_urban rail rail_electric rail_fast ship container cable_car subway aircraft wheelchair scooter drone" speed="7.31" length="11.80" shape="959.56,946.90 956.79,947.38 954.81,948.90 953.62,951.48 953.22,955.11"/>
    </edge>
    <edge id=":135612262_1" function="internal">
        <lane id=":135612262_1_0" index="0" disallow="pedestrian tram rail_urban rail rail_electric rail_fast ship container cable_car subway aircraft wheelchair scooter drone" speed="13.89" length="20.01" shape="959.56,946.90 953.65,947.31 949.65,948.36 945.63,949.42 939.70,949.86"/>
        <lane id=":135612262_1_1" index="1" disallow="pedestrian tram rail_urban rail rail_electric rail_fast ship container cable_car subway aircraft wheelchair scooter drone" speed="13.89" length="20.01" shape="959.56,946.90 939.73,946.66"/>
        <lane id=":135612262_1_2" index="2" disallow="pedestrian tram rail_urban rail rail_electric rail_fast ship container cable_car subway aircraft wheelchair scooter drone" speed="13.89" length="20.01" shape="959.61,943.70 939.76,943.46"/>
        <lane id=":135612262_1_3" index="3" disallow="pedestrian tram rail_urban rail rail_electric rail_fast ship container cable_car subway aircraft wheelchair scooter drone" speed="13.89" length="20.01" shape="959.61,943.70 953.71,943.11 949.72,941.96 945.72,940.82 939.79,940.26"/>
    </edge>
    <edge id=":135612262_5" function="internal">
        <lane id=":135612262_5_0" index="0" allow="bus bicycle" speed="8.33" length="19.64" shape="955.09,935.56 953.22,955.11"/>
    </edge>
    <edge id=":135612262_6" function="internal">
        <lane id=":135612262_6_0" index="0" allow="bus bicycle" speed="9.77" length="21.40" shape="955.09,935.56 954.02,940.47 951.10,943.95 946.34,946.02 939.73,946.66"/>
    </edge>
    <edge id=":135612262_7" function="internal">
        <lane id=":135612262_7_0" index="0" disallow="pedestrian tram rail_urban rail rail_electric rail_fast ship container cable_car subway aircraft wheelchair scooter drone" speed="8.33" length="20.09" shape="951.89,935.47 950.02,955.11"/>
        <lane id=":135612262_7_1" index="1" disallow="pedestrian tram rail_urban rail rail_electric rail_fast ship container cable_car subway aircraft wheelchair scooter drone" speed="8.33" length="20.09" shape="951.89,935.47 950.99,941.39 949.26,945.28 947.58,949.18 946.82,955.10"/>
    </edge>
    <edge id=":135612262_9" function="internal">
        <lane id=":135612262_9_0" index="0" disallow="pedestrian tram rail_urban rail rail_electric rail_fast ship container cable_car subway aircraft wheelchair scooter drone" speed="7.91" length="13.68" shape="948.69,935.39 948.05,938.95 946.35,941.48 943.59,942.99 939.76,943.46"/>
        <lane id=":135612262_9_1" index="1" disallow="pedestrian tram rail_urban rail rail_electric rail_fast ship container cable_car subway aircraft wheelchair scooter drone" speed="6.40" length="8.58" shape="945.50,935.30 945.09,937.49 944.00,939.05 942.24,939.97 939.79,940.26"/>
    </edge>
    <edge id=":1668388674_0" function="internal">
        <lane id=":1668388674_0_0" index="0" allow="pedestrian bus bicycle" speed="8.33" length="0.29" shape="955.92,898.11 955.91,898.41"/>
    </edge>
    <edge id=":1668388919_0" function="internal">
        <lane id=":1668388919_0_0" index="0" allow="tram" speed="13.89" length="4.18" shape="908.03,909.88 912.21,909.96"/>
    </edge>
    <edge id=":1762073412_0" function="internal">
        <lane id=":1762073412_0_0" index="0" allow="bus bicycle" speed="8.33" length="0.30" shape="951.61,897.80 951.59,898.10"/>
        <lane id=":1762073412_0_1" index="1" disallow="pedestrian tram rail_urban rail rail_electric rail_fast ship container cable_car subway aircraft wheelchair scooter drone" speed="8.33" length="0.30" shape="948.41,897.65 948.40,897.95"/>
        <lane id=":1762073412_0_2" index="2" disallow="pedestrian tram rail_urban rail rail_electric rail_fast ship container cable_car subway aircraft wheelchair scooter drone" speed="8.33" length="0.30" shape="945.22,897.50 945.20,897.80"/>
    </edge>
    <edge id=":1762073416_0" function="internal">
        <lane id=":1762073416_0_0" index="0" allow="bus bicycle" speed="8.33" length="3.42" shape="951.14,907.69 950.98,911.11"/>
        <lane id=":1762073416_0_1" index="1" disallow="pedestrian tram rail_urban rail rail_electric rail_fast ship container cable_car subway aircraft wheelchair scooter drone" speed="8.33" length="3.42" shape="947.94,907.54 947.78,910.95"/>
        <lane id=":1762073416_0_2" index="2" disallow="pedestrian tram rail_urban rail rail_electric rail_fast ship container cable_car subway aircraft wheelchair scooter drone" speed="8.33" length="3.42" shape="944.75,907.39 944.58,910.80"/>
    </edge>
    <edge id=":1762073416_3" function="internal">
        <lane id=":1762073416_3_0" index="0" allow="tram" speed="13.89" length="11.78" shape="941.42,909.65 953.19,909.31"/>
    </edge>
    <edge id=":1762073419_0" function="internal">
        <lane id=":1762073419_0_0" index="0" allow="pedestrian bus bicycle" speed="7.66" length="13.03" shape="955.18,915.41 955.22,919.95 956.03,923.24 957.63,925.28 960.01,926.06"/>
    </edge>
    <edge id=":1762073419_1" function="internal">
        <lane id=":1762073419_1_0" index="0" allow="bus bicycle" speed="8.33" length="19.94" shape="955.18,915.41 955.10,935.36"/>
    </edge>
    <edge id=":1762073419_2" function="internal">
        <lane id=":1762073419_2_0" index="0" allow="bus bicycle" speed="8.33" length="19.66" shape="950.76,915.67 950.77,921.49 951.25,925.47 951.76,929.45 951.90,935.27"/>
    </edge>
    <edge id=":1762073419_3" function="internal">
        <lane id=":1762073419_3_0" index="0" disallow="pedestrian tram rail_urban rail rail_electric rail_fast ship container cable_car subway aircraft wheelchair scooter drone" speed="8.98" length="18.01" shape="947.53,916.12 948.14,920.19 950.43,923.20 954.38,925.16 960.01,926.06"/>
        <lane id=":1762073419_3_1" index="1" disallow="pedestrian tram rail_urban rail rail_electric rail_fast ship container cable_car subway aircraft wheelchair scooter drone" speed="9.98" length="22.50" shape="944.30,916.78 945.06,921.89 947.90,925.67 952.82,928.13 959.83,929.26"/>
    </edge>
    <edge id=":1762073419_5" function="internal">
        <lane id=":1762073419_5_0" index="0" disallow="pedestrian tram rail_urban rail rail_electric rail_fast ship container cable_car subway aircraft wheelchair scooter drone" speed="8.33" length="18.77" shape="944.30,916.78 944.83,922.31 946.42,925.98 948.05,929.65 948.70,935.19"/>
        <lane id=":1762073419_5_1" index="1" disallow="pedestrian tram rail_urban rail rail_electric rail_fast ship container cable_car subway aircraft wheelchair scooter drone" speed="8.33" length="18.77" shape="944.30,916.78 944.33,922.22 944.82,925.94 945.35,929.65 945.50,935.10"/>
    </edge>
    <edge id=":1762073419_7" function="internal">
        <lane id=":1762073419_7_0" index="0" disallow="pedestrian tram rail_urban rail rail_electric rail_fast ship container cable_car subway aircraft wheelchair scooter drone" speed="13.89" length="20.49" shape="939.68,923.41 960.01,926.06"/>
        <lane id=":1762073419_7_1" index="1" disallow="pedestrian tram rail_urban rail rail_electric rail_fast ship container cable_car subway aircraft wheelchair scooter drone" speed="13.89" length="20.49" shape="939.53,926.60 959.83,929.26"/>
    </edge>
    <edge id=":1762073419_9" function="internal">
        <lane id=":1762073419_9_0" index="0" disallow="pedestrian tram rail_urban rail rail_electric rail_fast ship container cable_car subway aircraft wheelchair scooter drone" speed="6.59" length="9.16" shape="939.38,929.80 942.11,930.24 944.04,931.27 945.17,932.89 945.50,935.10"/>
    </edge>
    <edge id=":1762073431_0" function="internal">
        <lane id=":1762073431_0_0" index="0" disallow="tram rail_urban rail rail_electric rail_fast ship container cable_car subway aircraft wheelchair scooter drone" speed="13.89" length="0.30" shape="970.37,947.08 970.06,947.07"/>
        <lane id=":1762073431_0_1" index="1" disallow="tram rail_urban rail rail_electric rail_fast ship container cable_car subway aircraft wheelchair scooter drone" speed="13.89" length="0.30" shape="970.45,943.88 970.16,943.87"/>
    </edge>
    <edge id=":1762073434_0" function="internal">
        <lane id=":1762073434_0_0" index="0" disallow="tram rail_urban rail rail_electric rail_fast ship container cable_car subway aircraft wheelchair scooter drone" speed="8.33" length="3.90" shape="953.29,960.78 953.26,964.85"/>
        <lane id=":1762073434_0_1" index="1" disallow="tram rail_urban rail rail_electric rail_fast ship container cable_car subway aircraft wheelchair scooter drone" speed="8.33" length="3.90" shape="950.09,960.88 950.07,964.77"/>
        <lane id=":1762073434_0_2" index="2" disallow="tram rail_urban rail rail_electric rail_fast ship container cable_car subway aircraft wheelchair scooter drone" speed="8.33" length="3.90" shape="946.89,960.97 946.87,964.69"/>
    </edge>
    <edge id=":2078486565_0" function="internal">
        <lane id=":2078486565_0_0" index="0" allow="bicycle" speed="5.56" length="11.48" width="2.00" shape="931.32,905.83 919.86,905.18"/>
    </edge>
    <edge id=":2078486565_1" function="internal">
        <lane id=":2078486565_1_0" index="0" allow="bicycle" speed="4.26" length="4.26" width="2.00" shape="931.32,905.83 930.38,905.61 929.82,904.99 929.64,903.97 929.85,902.56"/>
    </edge>
    <edge id=":2078486565_2" function="internal">
        <lane id=":2078486565_2_0" index="0" allow="bicycle" speed="2.89" length="2.92" width="2.00" shape="931.32,905.83 930.59,905.31 930.35,904.81 930.61,904.31 931.37,903.83"/>
    </edge>
    <edge id=":2078486565_3" function="internal">
        <lane id=":2078486565_3_0" index="0" allow="bicycle" speed="4.99" length="4.63" width="2.00" shape="920.02,903.19 921.38,903.15 922.43,902.77 923.18,902.07 923.63,901.05"/>
    </edge>
    <edge id=":2078486565_4" function="internal">
        <lane id=":2078486565_4_0" index="0" allow="bicycle" speed="5.56" length="11.37" width="2.00" shape="920.02,903.19 931.37,903.83"/>
    </edge>
    <edge id=":2078486565_5" function="internal">
        <lane id=":2078486565_5_0" index="0" allow="bicycle" speed="2.89" length="2.92" width="2.00" shape="920.02,903.19 920.73,903.75 920.93,904.27 920.65,904.74 919.86,905.18"/>
    </edge>
    <edge id=":2078486565_6" function="internal">
        <lane id=":2078486565_6_0" index="0" allow="bicycle" speed="3.94" length="2.99" width="2.00" shape="922.32,906.26 922.18,905.70 921.56,905.40 920.70,905.25 919.86,905.18"/>
    </edge>
    <edge id=":2078486565_7" function="internal">
        <lane id=":2078486565_7_0" index="0" disallow="pedestrian tram rail_urban rail rail_electric rail_fast ship container cable_car subway aircraft wheelchair scooter drone" speed="8.33" length="5.44" shape="922.90,906.42 924.21,901.19"/>
        <lane id=":2078486565_7_1" index="1" disallow="pedestrian tram rail_urban rail rail_electric rail_fast ship container cable_car subway aircraft wheelchair scooter drone" speed="8.33" length="5.44" shape="925.99,907.22 927.32,901.94"/>
        <lane id=":2078486565_7_2" index="2" disallow="pedestrian tram rail_urban rail rail_electric rail_fast ship container cable_car subway aircraft wheelchair scooter drone" speed="8.33" length="5.44" shape="929.09,908.02 930.43,902.70"/>
    </edge>
    <edge id=":2078486565_10" function="internal">
        <lane id=":2078486565_10_0" index="0" allow="bicycle" speed="5.38" length="4.80" width="2.00" shape="929.67,908.17 929.90,907.08 930.24,905.63 930.72,904.36 931.37,903.83"/>
    </edge>
    <edge id=":2078486567_0" function="internal">
        <lane id=":2078486567_0_0" index="0" allow="bicycle" speed="2.89" length="0.90" width="2.00" shape="903.97,903.31 903.23,902.79"/>
    </edge>
    <edge id=":2078486567_2" function="internal">
        <lane id=":2078486567_2_0" index="0" allow="bicycle" speed="2.89" length="2.02" width="2.00" shape="903.23,902.79 902.99,902.29 903.26,901.79 904.02,901.31"/>
    </edge>
    <edge id=":2078486567_1" function="internal">
        <lane id=":2078486567_1_0" index="0" allow="bicycle" speed="5.56" length="5.25" width="2.00" shape="898.86,902.14 900.40,902.05 901.44,901.74 902.48,901.43 904.02,901.31"/>
    </edge>
    <edge id=":2282886340_0" function="internal">
        <lane id=":2282886340_0_0" index="0" allow="tram" speed="13.89" length="12.69" shape="931.53,913.32 918.84,913.31"/>
    </edge>
    <edge id=":2282886340_1" function="internal">
        <lane id=":2282886340_1_0" index="0" disallow="pedestrian tram rail_urban rail rail_electric rail_fast ship container cable_car subway aircraft wheelchair scooter drone" speed="8.33" length="4.75" shape="921.87,916.48 922.00,911.73"/>
        <lane id=":2282886340_1_1" index="1" disallow="pedestrian tram rail_urban rail rail_electric rail_fast ship container cable_car subway aircraft wheelchair scooter drone" speed="8.33" length="4.75" shape="925.07,916.57 925.20,911.83"/>
        <lane id=":2282886340_1_2" index="2" disallow="pedestrian tram rail_urban rail rail_electric rail_fast ship container cable_car subway aircraft wheelchair scooter drone" speed="8.33" length="4.75" shape="928.27,916.66 928.40,911.92"/>
    </edge>
    <edge id=":2282886342_0" function="internal">
        <lane id=":2282886342_0_0" index="0" allow="tram" speed="13.89" length="4.25" shape="912.10,913.26 907.85,913.20"/>
    </edge>
    <edge id=":2282886377_0" function="internal">
        <lane id=":2282886377_0_0" index="0" allow="tram" speed="13.89" length="11.81" shape="953.03,912.48 941.23,913.03"/>
    </edge>
    <edge id=":2282886377_1" function="internal">
        <lane id=":2282886377_1_0" index="0" allow="bus bicycle" speed="8.33" length="4.70" shape="950.97,911.31 950.77,915.47"/>