<?xml version="1.0" encoding="UTF-8"?>

<!-- generated on 2024-09-03 01:38:13.108914 by randomTrips.py UNKNOWN
<configuration>
    <net-file value="train_files/intersection/middle/outputs/map(83)_dict/map(83)/map(83).net.xml"/>
    <output-trip-file value="train_files/intersection/middle/outputs/map(83)_dict/map(83)/map(83).trips.xml"/>
    <fringe-factor value="max"/>
    <validate value="True"/>
    <period value="1.2"/>
</configuration>
-->

<!-- generated on 2024-09-03 01:38:13 by Eclipse SUMO duarouter Version 1.20.0
<configuration xmlns:xsi="http://www.w3.org/2001/XMLSchema-instance" xsi:noNamespaceSchemaLocation="http://sumo.dlr.de/xsd/duarouterConfiguration.xsd">

    <input>
        <net-file value="train_files/intersection/middle/outputs/map(83)_dict/map(83)/map(83).net.xml"/>
        <route-files value="train_files/intersection/middle/outputs/map(83)_dict/map(83)/map(83).trips.xml"/>
    </input>

    <output>
        <output-file value="train_files/intersection/middle/outputs/map(83)_dict/map(83)/map(83).trips.xml.tmp"/>
        <alternatives-output value="NUL"/>
        <write-trips value="true"/>
    </output>

    <time>
        <begin value="0"/>
        <end value="3600"/>
    </time>

    <report>
        <no-warnings value="true"/>
        <ignore-errors value="true"/>
        <no-step-log value="true"/>
    </report>

</configuration>
-->

<routes xmlns:xsi="http://www.w3.org/2001/XMLSchema-instance" xsi:noNamespaceSchemaLocation="http://sumo.dlr.de/xsd/routes_file.xsd">
    <trip id="1" depart="1.20" from="33804215" to="-33804215"/>
    <trip id="2" depart="2.40" from="344514067" to="-344514067"/>
    <trip id="4" depart="4.80" from="33804215" to="-33804215"/>
    <trip id="6" depart="7.20" from="33804215" to="-33804215"/>
    <trip id="7" depart="8.40" from="344514067" to="-344514067"/>
    <trip id="10" depart="12.00" from="344514067" to="-344514067"/>
    <trip id="11" depart="13.20" from="33804215" to="-33804215"/>
    <trip id="13" depart="15.60" from="33804215" to="-33804215"/>
    <trip id="14" depart="16.80" from="344514067" to="-344514067"/>
    <trip id="15" depart="18.00" from="344514067" to="-344514067"/>
    <trip id="16" depart="19.20" from="344514067" to="-344514067"/>
    <trip id="18" depart="21.60" from="344514067" to="-344514067"/>
    <trip id="19" depart="22.80" from="344514067" to="-344514067"/>
    <trip id="21" depart="25.20" from="33804215" to="-33804215"/>
    <trip id="22" depart="26.40" from="33804215" to="-33804215"/>
    <trip id="23" depart="27.60" from="33804215" to="-33804215"/>
    <trip id="25" depart="30.00" from="33804215" to="-33804215"/>
    <trip id="27" depart="32.40" from="344514067" to="-344514067"/>
    <trip id="29" depart="34.80" from="33804215" to="-33804215"/>
    <trip id="30" depart="36.00" from="344514067" to="-344514067"/>
    <trip id="31" depart="37.20" from="344514067" to="-344514067"/>
    <trip id="32" depart="38.40" from="344514067" to="-344514067"/>
    <trip id="33" depart="39.60" from="33804215" to="-33804215"/>
    <trip id="34" depart="40.80" from="33804215" to="-33804215"/>
    <trip id="39" depart="46.80" from="33804215" to="-33804215"/>
    <trip id="41" depart="49.20" from="344514067" to="-344514067"/>
    <trip id="42" depart="50.40" from="33804215" to="-33804215"/>
    <trip id="43" depart="51.60" from="344514067" to="-344514067"/>
    <trip id="44" depart="52.80" from="33804215" to="-33804215"/>
    <trip id="47" depart="56.40" from="33804215" to="-33804215"/>
    <trip id="48" depart="57.60" from="344514067" to="-344514067"/>
    <trip id="49" depart="58.80" from="344514067" to="-344514067"/>
    <trip id="51" depart="61.20" from="344514067" to="-344514067"/>
    <trip id="53" depart="63.60" from="33804215" to="-33804215"/>
    <trip id="57" depart="68.40" from="344514067" to="-344514067"/>
    <trip id="60" depart="72.00" from="344514067" to="-344514067"/>
    <trip id="61" depart="73.20" from="344514067" to="-344514067"/>
    <trip id="62" depart="74.40" from="33804215" to="-33804215"/>
    <trip id="64" depart="76.80" from="344514067" to="-344514067"/>
    <trip id="65" depart="78.00" from="33804215" to="-33804215"/>
    <trip id="66" depart="79.20" from="344514067" to="-344514067"/>
    <trip id="67" depart="80.40" from="33804215" to="-33804215"/>
    <trip id="72" depart="86.40" from="33804215" to="-33804215"/>
    <trip id="73" depart="87.60" from="344514067" to="-344514067"/>
    <trip id="74" depart="88.80" from="33804215" to="-33804215"/>
    <trip id="75" depart="90.00" from="344514067" to="-344514067"/>
    <trip id="77" depart="92.40" from="33804215" to="-33804215"/>
    <trip id="79" depart="94.80" from="33804215" to="-33804215"/>
    <trip id="84" depart="100.80" from="33804215" to="-33804215"/>
    <trip id="85" depart="102.00" from="344514067" to="-344514067"/>
    <trip id="88" depart="105.60" from="33804215" to="-33804215"/>
    <trip id="89" depart="106.80" from="33804215" to="-33804215"/>
    <trip id="90" depart="108.00" from="344514067" to="-344514067"/>
    <trip id="92" depart="110.40" from="33804215" to="-33804215"/>
    <trip id="94" depart="112.80" from="33804215" to="-33804215"/>
    <trip id="95" depart="114.00" from="33804215" to="-33804215"/>
    <trip id="99" depart="118.80" from="344514067" to="-344514067"/>
    <trip id="100" depart="120.00" from="344514067" to="-344514067"/>
    <trip id="102" depart="122.40" from="33804215" to="-33804215"/>
    <trip id="103" depart="123.60" from="33804215" to="-33804215"/>
    <trip id="106" depart="127.20" from="33804215" to="-33804215"/>
    <trip id="107" depart="128.40" from="344514067" to="-344514067"/>
    <trip id="108" depart="129.60" from="344514067" to="-344514067"/>
    <trip id="109" depart="130.80" from="33804215" to="-33804215"/>
    <trip id="110" depart="132.00" from="344514067" to="-344514067"/>
    <trip id="111" depart="133.20" from="344514067" to="-344514067"/>
    <trip id="113" depart="135.60" from="344514067" to="-344514067"/>
    <trip id="115" depart="138.00" from="33804215" to="-33804215"/>
    <trip id="116" depart="139.20" from="344514067" to="-344514067"/>
    <trip id="117" depart="140.40" from="33804215" to="-33804215"/>
    <trip id="119" depart="142.80" from="344514067" to="-344514067"/>
    <trip id="121" depart="145.20" from="344514067" to="-344514067"/>
    <trip id="123" depart="147.60" from="33804215" to="-33804215"/>
    <trip id="126" depart="151.20" from="33804215" to="-33804215"/>
    <trip id="127" depart="152.40" from="344514067" to="-344514067"/>
    <trip id="128" depart="153.60" from="33804215" to="-33804215"/>
    <trip id="130" depart="156.00" from="344514067" to="-344514067"/>
    <trip id="131" depart="157.20" from="33804215" to="-33804215"/>
    <trip id="132" depart="158.40" from="344514067" to="-344514067"/>
    <trip id="133" depart="159.60" from="344514067" to="-344514067"/>
    <trip id="136" depart="163.20" from="344514067" to="-344514067"/>
    <trip id="137" depart="164.40" from="33804215" to="-33804215"/>
    <trip id="144" depart="172.80" from="33804215" to="-33804215"/>
    <trip id="147" depart="176.40" from="344514067" to="-344514067"/>
    <trip id="148" depart="177.60" from="33804215" to="-33804215"/>
    <trip id="150" depart="180.00" from="344514067" to="-344514067"/>
    <trip id="151" depart="181.20" from="344514067" to="-344514067"/>
    <trip id="152" depart="182.40" from="33804215" to="-33804215"/>
    <trip id="154" depart="184.80" from="344514067" to="-344514067"/>
    <trip id="156" depart="187.20" from="33804215" to="-33804215"/>
    <trip id="157" depart="188.40" from="344514067" to="-344514067"/>
    <trip id="160" depart="192.00" from="344514067" to="-344514067"/>
    <trip id="161" depart="193.20" from="344514067" to="-344514067"/>
    <trip id="164" depart="196.80" from="344514067" to="-344514067"/>
    <trip id="167" depart="200.40" from="344514067" to="-344514067"/>
    <trip id="169" depart="202.80" from="33804215" to="-33804215"/>
    <trip id="171" depart="205.20" from="33804215" to="-33804215"/>
    <trip id="175" depart="210.00" from="344514067" to="-344514067"/>
    <trip id="179" depart="214.80" from="33804215" to="-33804215"/>
    <trip id="181" depart="217.20" from="344514067" to="-344514067"/>
    <trip id="185" depart="222.00" from="344514067" to="-344514067"/>
    <trip id="186" depart="223.20" from="344514067" to="-344514067"/>
    <trip id="187" depart="224.40" from="33804215" to="-33804215"/>
    <trip id="191" depart="229.20" from="33804215" to="-33804215"/>
    <trip id="192" depart="230.40" from="33804215" to="-33804215"/>
    <trip id="193" depart="231.60" from="33804215" to="-33804215"/>
    <trip id="194" depart="232.80" from="344514067" to="-344514067"/>
    <trip id="195" depart="234.00" from="344514067" to="-344514067"/>
    <trip id="197" depart="236.40" from="33804215" to="-33804215"/>
    <trip id="200" depart="240.00" from="33804215" to="-33804215"/>
    <trip id="205" depart="246.00" from="344514067" to="-344514067"/>
    <trip id="207" depart="248.40" from="33804215" to="-33804215"/>
    <trip id="208" depart="249.60" from="33804215" to="-33804215"/>
    <trip id="212" depart="254.40" from="33804215" to="-33804215"/>
    <trip id="214" depart="256.80" from="344514067" to="-344514067"/>
    <trip id="215" depart="258.00" from="33804215" to="-33804215"/>
    <trip id="220" depart="264.00" from="344514067" to="-344514067"/>
    <trip id="221" depart="265.20" from="344514067" to="-344514067"/>
    <trip id="222" depart="266.40" from="344514067" to="-344514067"/>
    <trip id="223" depart="267.60" from="344514067" to="-344514067"/>
    <trip id="224" depart="268.80" from="344514067" to="-344514067"/>
    <trip id="225" depart="270.00" from="344514067" to="-344514067"/>
    <trip id="226" depart="271.20" from="33804215" to="-33804215"/>
    <trip id="228" depart="273.60" from="344514067" to="-344514067"/>
    <trip id="230" depart="276.00" from="33804215" to="-33804215"/>
    <trip id="231" depart="277.20" from="33804215" to="-33804215"/>
    <trip id="236" depart="283.20" from="33804215" to="-33804215"/>
    <trip id="238" depart="285.60" from="344514067" to="-344514067"/>
    <trip id="239" depart="286.80" from="344514067" to="-344514067"/>
    <trip id="240" depart="288.00" from="33804215" to="-33804215"/>
    <trip id="242" depart="290.40" from="344514067" to="-344514067"/>
    <trip id="244" depart="292.80" from="344514067" to="-344514067"/>
    <trip id="245" depart="294.00" from="33804215" to="-33804215"/>
    <trip id="246" depart="295.20" from="33804215" to="-33804215"/>
    <trip id="248" depart="297.60" from="33804215" to="-33804215"/>
    <trip id="249" depart="298.80" from="33804215" to="-33804215"/>
    <trip id="253" depart="303.60" from="33804215" to="-33804215"/>
    <trip id="254" depart="304.80" from="33804215" to="-33804215"/>
    <trip id="255" depart="306.00" from="33804215" to="-33804215"/>
    <trip id="257" depart="308.40" from="344514067" to="-344514067"/>
    <trip id="258" depart="309.60" from="33804215" to="-33804215"/>
    <trip id="261" depart="313.20" from="344514067" to="-344514067"/>
    <trip id="262" depart="314.40" from="344514067" to="-344514067"/>
    <trip id="264" depart="316.80" from="33804215" to="-33804215"/>
    <trip id="267" depart="320.40" from="344514067" to="-344514067"/>
    <trip id="270" depart="324.00" from="344514067" to="-344514067"/>
    <trip id="271" depart="325.20" from="33804215" to="-33804215"/>
    <trip id="275" depart="330.00" from="344514067" to="-344514067"/>
    <trip id="277" depart="332.40" from="344514067" to="-344514067"/>
    <trip id="280" depart="336.00" from="33804215" to="-33804215"/>
    <trip id="282" depart="338.40" from="344514067" to="-344514067"/>
    <trip id="284" depart="340.80" from="344514067" to="-344514067"/>
    <trip id="286" depart="343.20" from="344514067" to="-344514067"/>
    <trip id="294" depart="352.80" from="33804215" to="-33804215"/>
    <trip id="302" depart="362.40" from="344514067" to="-344514067"/>
    <trip id="304" depart="364.80" from="33804215" to="-33804215"/>
    <trip id="310" depart="372.00" from="33804215" to="-33804215"/>
    <trip id="311" depart="373.20" from="33804215" to="-33804215"/>
    <trip id="312" depart="374.40" from="344514067" to="-344514067"/>
    <trip id="313" depart="375.60" from="33804215" to="-33804215"/>
    <trip id="315" depart="378.00" from="344514067" to="-344514067"/>
    <trip id="316" depart="379.20" from="33804215" to="-33804215"/>
    <trip id="317" depart="380.40" from="33804215" to="-33804215"/>
    <trip id="318" depart="381.60" from="33804215" to="-33804215"/>
    <trip id="320" depart="384.00" from="344514067" to="-344514067"/>
    <trip id="323" depart="387.60" from="344514067" to="-344514067"/>
    <trip id="324" depart="388.80" from="33804215" to="-33804215"/>
    <trip id="325" depart="390.00" from="33804215" to="-33804215"/>
    <trip id="329" depart="394.80" from="33804215" to="-33804215"/>
    <trip id="332" depart="398.40" from="344514067" to="-344514067"/>
    <trip id="337" depart="404.40" from="344514067" to="-344514067"/>
    <trip id="338" depart="405.60" from="344514067" to="-344514067"/>
    <trip id="339" depart="406.80" from="33804215" to="-33804215"/>
    <trip id="341" depart="409.20" from="33804215" to="-33804215"/>
    <trip id="342" depart="410.40" from="33804215" to="-33804215"/>
    <trip id="346" depart="415.20" from="344514067" to="-344514067"/>
    <trip id="347" depart="416.40" from="344514067" to="-344514067"/>
    <trip id="348" depart="417.60" from="344514067" to="-344514067"/>
    <trip id="350" depart="420.00" from="344514067" to="-344514067"/>
    <trip id="352" depart="422.40" from="33804215" to="-33804215"/>
    <trip id="353" depart="423.60" from="344514067" to="-344514067"/>
    <trip id="354" depart="424.80" from="33804215" to="-33804215"/>
    <trip id="355" depart="426.00" from="344514067" to="-344514067"/>
    <trip id="356" depart="427.20" from="344514067" to="-344514067"/>
    <trip id="357" depart="428.40" from="33804215" to="-33804215"/>
    <trip id="358" depart="429.60" from="33804215" to="-33804215"/>
    <trip id="359" depart="430.80" from="33804215" to="-33804215"/>
    <trip id="361" depart="433.20" from="344514067" to="-344514067"/>
    <trip id="362" depart="434.40" from="344514067" to="-344514067"/>
    <trip id="367" depart="440.40" from="344514067" to="-344514067"/>
    <trip id="368" depart="441.60" from="33804215" to="-33804215"/>
    <trip id="369" depart="442.80" from="33804215" to="-33804215"/>
    <trip id="370" depart="444.00" from="344514067" to="-344514067"/>
    <trip id="373" depart="447.60" from="344514067" to="-344514067"/>
    <trip id="374" depart="448.80" from="33804215" to="-33804215"/>
    <trip id="377" depart="452.40" from="344514067" to="-344514067"/>
    <trip id="379" depart="454.80" from="33804215" to="-33804215"/>
    <trip id="380" depart="456.00" from="344514067" to="-344514067"/>
    <trip id="382" depart="458.40" from="344514067" to="-344514067"/>
    <trip id="388" depart="465.60" from="344514067" to="-344514067"/>
    <trip id="389" depart="466.80" from="33804215" to="-33804215"/>
    <trip id="391" depart="469.20" from="344514067" to="-344514067"/>
    <trip id="395" depart="474.00" from="344514067" to="-344514067"/>
    <trip id="396" depart="475.20" from="344514067" to="-344514067"/>
    <trip id="399" depart="478.80" from="344514067" to="-344514067"/>
    <trip id="400" depart="480.00" from="33804215" to="-33804215"/>
    <trip id="401" depart="481.20" from="344514067" to="-344514067"/>
    <trip id="402" depart="482.40" from="33804215" to="-33804215"/>
    <trip id="404" depart="484.80" from="344514067" to="-344514067"/>
    <trip id="405" depart="486.00" from="33804215" to="-33804215"/>
    <trip id="409" depart="490.80" from="344514067" to="-344514067"/>
    <trip id="411" depart="493.20" from="344514067" to="-344514067"/>
    <trip id="414" depart="496.80" from="344514067" to="-344514067"/>
    <trip id="421" depart="505.20" from="344514067" to="-344514067"/>
    <trip id="422" depart="506.40" from="344514067" to="-344514067"/>
    <trip id="423" depart="507.60" from="33804215" to="-33804215"/>
    <trip id="424" depart="508.80" from="344514067" to="-344514067"/>
    <trip id="427" depart="512.40" from="344514067" to="-344514067"/>
    <trip id="431" depart="517.20" from="344514067" to="-344514067"/>
    <trip id="433" depart="519.60" from="33804215" to="-33804215"/>
    <trip id="435" depart="522.00" from="344514067" to="-344514067"/>
    <trip id="436" depart="523.20" from="33804215" to="-33804215"/>
    <trip id="437" depart="524.40" from="344514067" to="-344514067"/>
    <trip id="439" depart="526.80" from="33804215" to="-33804215"/>
    <trip id="440" depart="528.00" from="33804215" to="-33804215"/>
    <trip id="442" depart="530.40" from="344514067" to="-344514067"/>
    <trip id="443" depart="531.60" from="33804215" to="-33804215"/>
    <trip id="447" depart="536.40" from="33804215" to="-33804215"/>
    <trip id="448" depart="537.60" from="33804215" to="-33804215"/>
    <trip id="449" depart="538.80" from="344514067" to="-344514067"/>
    <trip id="451" depart="541.20" from="344514067" to="-344514067"/>
    <trip id="453" depart="543.60" from="344514067" to="-344514067"/>
    <trip id="458" depart="549.60" from="344514067" to="-344514067"/>
    <trip id="459" depart="550.80" from="344514067" to="-344514067"/>
    <trip id="460" depart="552.00" from="344514067" to="-344514067"/>
    <trip id="461" depart="553.20" from="344514067" to="-344514067"/>
    <trip id="466" depart="559.20" from="33804215" to="-33804215"/>
    <trip id="467" depart="560.40" from="344514067" to="-344514067"/>
    <trip id="468" depart="561.60" from="344514067" to="-344514067"/>
    <trip id="471" depart="565.20" from="344514067" to="-344514067"/>
    <trip id="472" depart="566.40" from="33804215" to="-33804215"/>
    <trip id="474" depart="568.80" from="344514067" to="-344514067"/>
    <trip id="475" depart="570.00" from="344514067" to="-344514067"/>
    <trip id="476" depart="571.20" from="344514067" to="-344514067"/>
    <trip id="480" depart="576.00" from="344514067" to="-344514067"/>
    <trip id="481" depart="577.20" from="344514067" to="-344514067"/>
    <trip id="482" depart="578.40" from="33804215" to="-33804215"/>
    <trip id="484" depart="580.80" from="344514067" to="-344514067"/>
    <trip id="485" depart="582.00" from="33804215" to="-33804215"/>
    <trip id="486" depart="583.20" from="344514067" to="-344514067"/>
    <trip id="487" depart="584.40" from="33804215" to="-33804215"/>
    <trip id="489" depart="586.80" from="33804215" to="-33804215"/>
    <trip id="491" depart="589.20" from="33804215" to="-33804215"/>
    <trip id="492" depart="590.40" from="344514067" to="-344514067"/>
    <trip id="495" depart="594.00" from="33804215" to="-33804215"/>
    <trip id="496" depart="595.20" from="33804215" to="-33804215"/>
    <trip id="498" depart="597.60" from="33804215" to="-33804215"/>
    <trip id="499" depart="598.80" from="344514067" to="-344514067"/>
    <trip id="501" depart="601.20" from="344514067" to="-344514067"/>
    <trip id="502" depart="602.40" from="33804215" to="-33804215"/>
    <trip id="503" depart="603.60" from="33804215" to="-33804215"/>
    <trip id="505" depart="606.00" from="344514067" to="-344514067"/>
    <trip id="510" depart="612.00" from="33804215" to="-33804215"/>
    <trip id="514" depart="616.80" from="33804215" to="-33804215"/>
    <trip id="515" depart="618.00" from="33804215" to="-33804215"/>
    <trip id="518" depart="621.60" from="33804215" to="-33804215"/>
    <trip id="519" depart="622.80" from="33804215" to="-33804215"/>
    <trip id="520" depart="624.00" from="344514067" to="-344514067"/>
    <trip id="522" depart="626.40" from="344514067" to="-344514067"/>
    <trip id="525" depart="630.00" from="344514067" to="-344514067"/>
    <trip id="528" depart="633.60" from="33804215" to="-33804215"/>
    <trip id="532" depart="638.40" from="33804215" to="-33804215"/>
    <trip id="533" depart="639.60" from="344514067" to="-344514067"/>
    <trip id="537" depart="644.40" from="344514067" to="-344514067"/>
    <trip id="538" depart="645.60" from="344514067" to="-344514067"/>
    <trip id="540" depart="648.00" from="33804215" to="-33804215"/>
    <trip id="541" depart="649.20" from="33804215" to="-33804215"/>
    <trip id="542" depart="650.40" from="33804215" to="-33804215"/>
    <trip id="544" depart="652.80" from="33804215" to="-33804215"/>
    <trip id="548" depart="657.60" from="344514067" to="-344514067"/>
    <trip id="549" depart="658.80" from="344514067" to="-344514067"/>
    <trip id="550" depart="660.00" from="33804215" to="-33804215"/>
    <trip id="552" depart="662.40" from="344514067" to="-344514067"/>
    <trip id="553" depart="663.60" from="344514067" to="-344514067"/>
    <trip id="559" depart="670.80" from="344514067" to="-344514067"/>
    <trip id="560" depart="672.00" from="344514067" to="-344514067"/>
    <trip id="561" depart="673.20" from="344514067" to="-344514067"/>
    <trip id="563" depart="675.60" from="344514067" to="-344514067"/>
    <trip id="564" depart="676.80" from="33804215" to="-33804215"/>
    <trip id="566" depart="679.20" from="33804215" to="-33804215"/>
    <trip id="567" depart="680.40" from="344514067" to="-344514067"/>
    <trip id="568" depart="681.60" from="33804215" to="-33804215"/>
    <trip id="571" depart="685.20" from="33804215" to="-33804215"/>
    <trip id="573" depart="687.60" from="344514067" to="-344514067"/>
    <trip id="574" depart="688.80" from="33804215" to="-33804215"/>
    <trip id="578" depart="693.60" from="33804215" to="-33804215"/>
    <trip id="580" depart="696.00" from="33804215" to="-33804215"/>
    <trip id="584" depart="700.80" from="33804215" to="-33804215"/>
    <trip id="585" depart="702.00" from="33804215" to="-33804215"/>
    <trip id="586" depart="703.20" from="33804215" to="-33804215"/>
    <trip id="588" depart="705.60" from="33804215" to="-33804215"/>
    <trip id="589" depart="706.80" from="344514067" to="-344514067"/>
    <trip id="590" depart="708.00" from="344514067" to="-344514067"/>
    <trip id="592" depart="710.40" from="33804215" to="-33804215"/>
    <trip id="593" depart="711.60" from="344514067" to="-344514067"/>
    <trip id="594" depart="712.80" from="344514067" to="-344514067"/>
    <trip id="596" depart="715.20" from="33804215" to="-33804215"/>
    <trip id="598" depart="717.60" from="344514067" to="-344514067"/>
    <trip id="601" depart="721.20" from="344514067" to="-344514067"/>
    <trip id="602" depart="722.40" from="33804215" to="-33804215"/>
    <trip id="603" depart="723.60" from="33804215" to="-33804215"/>
    <trip id="607" depart="728.40" from="344514067" to="-344514067"/>
    <trip id="609" depart="730.80" from="33804215" to="-33804215"/>
    <trip id="610" depart="732.00" from="344514067" to="-344514067"/>
    <trip id="613" depart="735.60" from="344514067" to="-344514067"/>
    <trip id="615" depart="738.00" from="344514067" to="-344514067"/>
    <trip id="616" depart="739.20" from="344514067" to="-344514067"/>
    <trip id="618" depart="741.60" from="33804215" to="-33804215"/>
    <trip id="619" depart="742.80" from="33804215" to="-33804215"/>
    <trip id="621" depart="745.20" from="33804215" to="-33804215"/>
    <trip id="624" depart="748.80" from="344514067" to="-344514067"/>
    <trip id="626" depart="751.20" from="344514067" to="-344514067"/>
    <trip id="628" depart="753.60" from="344514067" to="-344514067"/>
    <trip id="629" depart="754.80" from="33804215" to="-33804215"/>
    <trip id="630" depart="756.00" from="33804215" to="-33804215"/>
    <trip id="634" depart="760.80" from="33804215" to="-33804215"/>
    <trip id="636" depart="763.20" from="33804215" to="-33804215"/>
    <trip id="637" depart="764.40" from="33804215" to="-33804215"/>
    <trip id="639" depart="766.80" from="344514067" to="-344514067"/>
    <trip id="640" depart="768.00" from="33804215" to="-33804215"/>
    <trip id="642" depart="770.40" from="344514067" to="-344514067"/>
    <trip id="643" depart="771.60" from="344514067" to="-344514067"/>
    <trip id="645" depart="774.00" from="33804215" to="-33804215"/>
    <trip id="646" depart="775.20" from="344514067" to="-344514067"/>
    <trip id="650" depart="780.00" from="344514067" to="-344514067"/>
    <trip id="651" depart="781.20" from="344514067" to="-344514067"/>
    <trip id="652" depart="782.40" from="344514067" to="-344514067"/>
    <trip id="654" depart="784.80" from="33804215" to="-33804215"/>
    <trip id="655" depart="786.00" from="33804215" to="-33804215"/>
    <trip id="657" depart="788.40" from="33804215" to="-33804215"/>
    <trip id="660" depart="792.00" from="344514067" to="-344514067"/>
    <trip id="661" depart="793.20" from="33804215" to="-33804215"/>
    <trip id="663" depart="795.60" from="33804215" to="-33804215"/>
    <trip id="664" depart="796.80" from="344514067" to="-344514067"/>
    <trip id="666" depart="799.20" from="33804215" to="-33804215"/>
    <trip id="668" depart="801.60" from="33804215" to="-33804215"/>
    <trip id="673" depart="807.60" from="344514067" to="-344514067"/>
    <trip id="674" depart="808.80" from="33804215" to="-33804215"/>
    <trip id="676" depart="811.20" from="344514067" to="-344514067"/>
    <trip id="679" depart="814.80" from="344514067" to="-344514067"/>
    <trip id="685" depart="822.00" from="33804215" to="-33804215"/>
    <trip id="686" depart="823.20" from="33804215" to="-33804215"/>
    <trip id="689" depart="826.80" from="33804215" to="-33804215"/>
    <trip id="690" depart="828.00" from="344514067" to="-344514067"/>
    <trip id="691" depart="829.20" from="344514067" to="-344514067"/>
    <trip id="692" depart="830.40" from="33804215" to="-33804215"/>
    <trip id="693" depart="831.60" from="344514067" to="-344514067"/>
    <trip id="695" depart="834.00" from="33804215" to="-33804215"/>
    <trip id="696" depart="835.20" from="33804215" to="-33804215"/>
    <trip id="697" depart="836.40" from="344514067" to="-344514067"/>
    <trip id="698" depart="837.60" from="344514067" to="-344514067"/>
    <trip id="699" depart="838.80" from="33804215" to="-33804215"/>
    <trip id="700" depart="840.00" from="33804215" to="-33804215"/>
    <trip id="702" depart="842.40" from="33804215" to="-33804215"/>
    <trip id="703" depart="843.60" from="344514067" to="-344514067"/>
    <trip id="705" depart="846.00" from="33804215" to="-33804215"/>
    <trip id="707" depart="848.40" from="33804215" to="-33804215"/>
    <trip id="710" depart="852.00" from="344514067" to="-344514067"/>
    <trip id="711" depart="853.20" from="344514067" to="-344514067"/>
    <trip id="712" depart="854.40" from="33804215" to="-33804215"/>
    <trip id="713" depart="855.60" from="344514067" to="-344514067"/>
    <trip id="714" depart="856.80" from="33804215" to="-33804215"/>
    <trip id="716" depart="859.20" from="344514067" to="-344514067"/>
    <trip id="717" depart="860.40" from="344514067" to="-344514067"/>
    <trip id="718" depart="861.60" from="33804215" to="-33804215"/>
    <trip id="719" depart="862.80" from="344514067" to="-344514067"/>
    <trip id="722" depart="866.40" from="344514067" to="-344514067"/>
    <trip id="724" depart="868.80" from="33804215" to="-33804215"/>
    <trip id="725" depart="870.00" from="33804215" to="-33804215"/>
    <trip id="727" depart="872.40" from="344514067" to="-344514067"/>
    <trip id="732" depart="878.40" from="33804215" to="-33804215"/>
    <trip id="733" depart="879.60" from="344514067" to="-344514067"/>
    <trip id="737" depart="884.40" from="344514067" to="-344514067"/>
    <trip id="739" depart="886.80" from="344514067" to="-344514067"/>
    <trip id="744" depart="892.80" from="33804215" to="-33804215"/>
    <trip id="747" depart="896.40" from="344514067" to="-344514067"/>
    <trip id="750" depart="900.00" from="344514067" to="-344514067"/>
    <trip id="754" depart="904.80" from="33804215" to="-33804215"/>
    <trip id="755" depart="906.00" from="344514067" to="-344514067"/>
    <trip id="756" depart="907.20" from="344514067" to="-344514067"/>
    <trip id="758" depart="909.60" from="344514067" to="-344514067"/>
    <trip id="760" depart="912.00" from="33804215" to="-33804215"/>
    <trip id="763" depart="915.60" from="33804215" to="-33804215"/>
    <trip id="766" depart="919.20" from="33804215" to="-33804215"/>
    <trip id="771" depart="925.20" from="33804215" to="-33804215"/>
    <trip id="772" depart="926.40" from="344514067" to="-344514067"/>
    <trip id="773" depart="927.60" from="344514067" to="-344514067"/>
    <trip id="774" depart="928.80" from="344514067" to="-344514067"/>
    <trip id="775" depart="930.00" from="344514067" to="-344514067"/>
    <trip id="776" depart="931.20" from="33804215" to="-33804215"/>
    <trip id="780" depart="936.00" from="344514067" to="-344514067"/>
    <trip id="781" depart="937.20" from="33804215" to="-33804215"/>
    <trip id="782" depart="938.40" from="344514067" to="-344514067"/>
    <trip id="783" depart="939.60" from="344514067" to="-344514067"/>
    <trip id="785" depart="942.00" from="344514067" to="-344514067"/>
    <trip id="788" depart="945.60" from="344514067" to="-344514067"/>
    <trip id="791" depart="949.20" from="33804215" to="-33804215"/>
    <trip id="792" depart="950.40" from="33804215" to="-33804215"/>
    <trip id="795" depart="954.00" from="344514067" to="-344514067"/>
    <trip id="801" depart="961.20" from="344514067" to="-344514067"/>
    <trip id="802" depart="962.40" from="344514067" to="-344514067"/>
    <trip id="803" depart="963.60" from="344514067" to="-344514067"/>
    <trip id="804" depart="964.80" from="33804215" to="-33804215"/>
    <trip id="805" depart="966.00" from="344514067" to="-344514067"/>