<?xml version="1.0" encoding="UTF-8"?>

<!-- generated on 2024-09-03 01:38:08 by Eclipse SUMO duarouter Version 1.20.0
<configuration xmlns:xsi="http://www.w3.org/2001/XMLSchema-instance" xsi:noNamespaceSchemaLocation="http://sumo.dlr.de/xsd/duarouterConfiguration.xsd">

    <input>
        <net-file value="train_files/intersection/middle/outputs/map(53)_dict/map(53)/map(53).net.xml"/>
        <route-files value="train_files/intersection/middle/outputs/map(53)_dict/map(53)/map(53).trips.xml"/>
    </input>

    <output>
        <output-file value="train_files/intersection/middle/outputs/map(53)_dict/map(53)/map(53).rou.xml"/>
    </output>

    <report>
        <ignore-errors value="true"/>
    </report>

</configuration>
-->

<routes xmlns:xsi="http://www.w3.org/2001/XMLSchema-instance" xsi:noNamespaceSchemaLocation="http://sumo.dlr.de/xsd/routes_file.xsd">
    <vehicle id="1" depart="1.20">
        <route edges="229688365#0 229688365#1 963150439 22973545#0 22973545#1"/>
    </vehicle>
    <vehicle id="3" depart="3.60">
        <route edges="964393320#0 964393320#1 964393320#2 964390997 964391619 963150439 22973545#0 22973545#1"/>
    </vehicle>
    <vehicle id="5" depart="6.00">
        <route edges="1160199981#0 1160199981#1 963150437#0 963150437#1"/>
    </vehicle>
    <vehicle id="6" depart="7.20">
        <route edges="-22973545#1 -22973545#0 -963150439 963150439 22973545#0 22973545#1"/>
    </vehicle>
    <vehicle id="8" depart="9.60">
        <route edges="1160199981#0 1160199981#1 963150437#0 963150437#1"/>
    </vehicle>
    <vehicle id="9" depart="10.80">
        <route edges="964390929 963150441#0 963150441#1 963150441#2 963150439 22973545#0 22973545#1"/>
    </vehicle>
    <vehicle id="10" depart="12.00">
        <route edges="964390929 963150441#0 963150441#1 963150441#2 985563041 963150437#0 963150437#1"/>
    </vehicle>
    <vehicle id="11" depart="13.20">
        <route edges="229688365#0 229688365#1 963150439 22973545#0 22973545#1"/>
    </vehicle>
    <vehicle id="12" depart="14.40">
        <route edges="964393320#0 964393320#1 964393320#2 964390997 964391619 963150438 688692772"/>
    </vehicle>
    <vehicle id="13" depart="15.60">
        <route edges="-22973545#1 -22973545#0 -963150439 963150439 22973545#0 22973545#1"/>
    </vehicle>
    <vehicle id="14" depart="16.80">
        <route edges="964390929 963150441#0 963150441#1 963150441#2 985563041 963150437#0 963150437#1"/>
    </vehicle>
    <vehicle id="15" depart="18.00">
        <route edges="964390929 963150441#0 963150441#1 963150441#2 985563041 963150437#0 963150437#1"/>
    </vehicle>
    <vehicle id="18" depart="21.60">
        <route edges="964390929 963150441#0 963150441#1 963150441#2 985563041 963150437#0 963150437#1"/>
    </vehicle>
    <vehicle id="19" depart="22.80">
        <route edges="964390929 963150441#0 963150441#1 963150441#2 985563041 963150437#0 963150437#1"/>
    </vehicle>
    <vehicle id="22" depart="26.40">
        <route edges="-22973545#1 -22973545#0 -963150439 963150439 22973545#0 22973545#1"/>
    </vehicle>
    <vehicle id="23" depart="27.60">
        <route edges="-22973545#1 -22973545#0 -963150439 963150438 688692772"/>
    </vehicle>
    <vehicle id="25" depart="30.00">
        <route edges="229688365#0 229688365#1 963150439 22973545#0 22973545#1"/>
    </vehicle>
    <vehicle id="26" depart="31.20">
        <route edges="229688365#0 229688365#1 963150439 22973545#0 22973545#1 -22973545#1 -22973545#0 -963150439 985563041 963150436 963150434 963150432 964390999"/>
    </vehicle>
    <vehicle id="28" depart="33.60">
        <route edges="1160199981#0 1160199981#1 963150437#0 963150437#1"/>
    </vehicle>
    <vehicle id="30" depart="36.00">
        <route edges="964393320#0 964393320#1 964393320#2 964390997 964391619 963150439 22973545#0 22973545#1 -22973545#1 -22973545#0 -963150439 985563041 963150437#0 963150437#1"/>
    </vehicle>
    <vehicle id="31" depart="37.20">
        <route edges="229688729#0 229688729#1 229688729#2 964391618 963150437#0 963150437#1"/>
    </vehicle>
    <vehicle id="32" depart="38.40">
        <route edges="964390929 963150441#0 963150441#1 963150441#2 985563041 963150436 963150434 963150432 964390999"/>
    </vehicle>
    <vehicle id="34" depart="40.80">
        <route edges="229688365#0 229688365#1 963150439 22973545#0 22973545#1 -22973545#1 -22973545#0 -963150439 963150438 688692772"/>
    </vehicle>
    <vehicle id="35" depart="42.00">
        <route edges="1160199981#0 1160199981#1 963150436 963150434 963150432 964390999"/>
    </vehicle>
    <vehicle id="36" depart="43.20">
        <route edges="964393320#0 964393320#1 964393320#2 964390997 964391619 963150438 688692772"/>
    </vehicle>
    <vehicle id="38" depart="45.60">
        <route edges="964393320#0 964393320#1 964393320#2 964390997 964391619 963150438 688692772"/>
    </vehicle>
    <vehicle id="39" depart="46.80">
        <route edges="229688365#0 229688365#1 963150439 22973545#0 22973545#1"/>
    </vehicle>
    <vehicle id="43" depart="51.60">
        <route edges="964393320#0 964393320#1 964393320#2 964390997 964391619 963150439 22973545#0 22973545#1 -22973545#1 -22973545#0 -963150439 985563041 963150437#0 963150437#1"/>
    </vehicle>
    <vehicle id="44" depart="52.80">
        <route edges="-22973545#1 -22973545#0 -963150439 963150439 22973545#0 22973545#1"/>
    </vehicle>
    <vehicle id="45" depart="54.00">
        <route edges="-22973545#1 -22973545#0 -963150439 985563041 963150437#0 963150437#1"/>
    </vehicle>
    <vehicle id="46" depart="55.20">
        <route edges="964390929 963150441#0 963150441#1 963150441#2 963150438 688692772"/>
    </vehicle>
    <vehicle id="47" depart="56.40">
        <route edges="-22973545#1 -22973545#0 -963150439 963150438 688692772"/>
    </vehicle>
    <vehicle id="48" depart="57.60">
        <route edges="964393320#0 964393320#1 964393320#2 964390997 964391619 963150439 22973545#0 22973545#1 -22973545#1 -22973545#0 -963150439 985563041 963150437#0 963150437#1"/>
    </vehicle>
    <vehicle id="49" depart="58.80">
        <route edges="964393320#0 964393320#1 964393320#2 964390997 964391619 963150439 22973545#0 22973545#1 -22973545#1 -22973545#0 -963150439 985563041 963150436 963150434 963150432 964390999"/>
    </vehicle>
    <vehicle id="50" depart="60.00">
        <route edges="-22973545#1 -22973545#0 -963150439 985563041 963150437#0 963150437#1"/>
    </vehicle>
    <vehicle id="52" depart="62.40">
        <route edges="229688365#0 229688365#1 963150439 22973545#0 22973545#1 -22973545#1 -22973545#0 -963150439 985563041 963150437#0 963150437#1"/>
    </vehicle>
    <vehicle id="53" depart="63.60">
        <route edges="-22973545#1 -22973545#0 -963150439 963150438 688692772"/>
    </vehicle>
    <vehicle id="55" depart="66.00">
        <route edges="964393320#0 964393320#1 964393320#2 964390997 964391619 963150438 688692772"/>
    </vehicle>
    <vehicle id="57" depart="68.40">
        <route edges="964393320#0 964393320#1 964393320#2 964390997 964391619 963150439 22973545#0 22973545#1 -22973545#1 -22973545#0 -963150439 985563041 963150436 963150434 963150432 964390999"/>
    </vehicle>
    <vehicle id="58" depart="69.60">
        <route edges="229688365#0 229688365#1 963150439 22973545#0 22973545#1 -22973545#1 -22973545#0 -963150439 985563041 963150437#0 963150437#1"/>
    </vehicle>
    <vehicle id="60" depart="72.00">
        <route edges="964390929 963150441#0 963150441#1 963150441#2 985563041 963150437#0 963150437#1"/>
    </vehicle>
    <vehicle id="61" depart="73.20">
        <route edges="964390929 963150441#0 963150441#1 963150441#2 985563041 963150437#0 963150437#1"/>
    </vehicle>
    <vehicle id="62" depart="74.40">
        <route edges="-22973545#1 -22973545#0 -963150439 963150438 688692772"/>
    </vehicle>
    <vehicle id="63" depart="75.60">
        <route edges="-22973545#1 -22973545#0 -963150439 985563041 963150436 963150434 963150432 964390999"/>
    </vehicle>
    <vehicle id="64" depart="76.80">
        <route edges="964393320#0 964393320#1 964393320#2 964390997 964391619 963150439 22973545#0 22973545#1 -22973545#1 -22973545#0 -963150439 985563041 963150436 963150434 963150432 964390999"/>
    </vehicle>
    <vehicle id="65" depart="78.00">
        <route edges="229688365#0 229688365#1 963150439 22973545#0 22973545#1"/>
    </vehicle>
    <vehicle id="66" depart="79.20">
        <route edges="964393320#0 964393320#1 964393320#2 964390997 964391619 963150439 22973545#0 22973545#1 -22973545#1 -22973545#0 -963150439 985563041 963150436 963150434 963150432 964390999"/>
    </vehicle>
    <vehicle id="67" depart="80.40">
        <route edges="-22973545#1 -22973545#0 -963150439 963150438 688692772"/>
    </vehicle>
    <vehicle id="68" depart="81.60">
        <route edges="-22973545#1 -22973545#0 -963150439 985563041 963150436 963150434 963150432 964390999"/>
    </vehicle>
    <vehicle id="69" depart="82.80">
        <route edges="964390929 963150441#0 963150441#1 963150441#2 963150439 22973545#0 22973545#1"/>
    </vehicle>
    <vehicle id="71" depart="85.20">
        <route edges="229688365#0 229688365#1 963150439 22973545#0 22973545#1 -22973545#1 -22973545#0 -963150439 985563041 963150436 963150434 963150432 964390999"/>
    </vehicle>
    <vehicle id="73" depart="87.60">
        <route edges="229688729#0 229688729#1 229688729#2 964391618 963150437#0 963150437#1"/>
    </vehicle>
    <vehicle id="75" depart="90.00">
        <route edges="964393320#0 964393320#1 964393320#2 964390997 964391619 963150439 22973545#0 22973545#1 -22973545#1 -22973545#0 -963150439 985563041 963150437#0 963150437#1"/>
    </vehicle>
    <vehicle id="77" depart="92.40">
        <route edges="-22973545#1 -22973545#0 -963150439 963150439 22973545#0 22973545#1"/>
    </vehicle>
    <vehicle id="78" depart="93.60">
        <route edges="229688365#0 229688365#1 963150439 22973545#0 22973545#1 -22973545#1 -22973545#0 -963150439 985563041 963150437#0 963150437#1"/>
    </vehicle>
    <vehicle id="80" depart="96.00">
        <route edges="-22973545#1 -22973545#0 -963150439 985563041 963150437#0 963150437#1"/>
    </vehicle>
    <vehicle id="81" depart="97.20">
        <route edges="1160199981#0 1160199981#1 963150436 963150434 963150432 964390999"/>
    </vehicle>
    <vehicle id="82" depart="98.40">
        <route edges="964390929 963150441#0 963150441#1 963150441#2 963150439 22973545#0 22973545#1"/>
    </vehicle>
    <vehicle id="83" depart="99.60">
        <route edges="1160199981#0 1160199981#1 963150437#0 963150437#1"/>
    </vehicle>
    <vehicle id="85" depart="102.00">
        <route edges="964393320#0 964393320#1 964393320#2 964390997 964391619 963150439 22973545#0 22973545#1 -22973545#1 -22973545#0 -963150439 985563041 963150437#0 963150437#1"/>
    </vehicle>
    <vehicle id="87" depart="104.40">
        <route edges="964390929 963150441#0 963150441#1 963150441#2 963150439 22973545#0 22973545#1"/>
    </vehicle>
    <vehicle id="88" depart="105.60">
        <route edges="-22973545#1 -22973545#0 -963150439 963150438 688692772"/>
    </vehicle>
    <vehicle id="89" depart="106.80">
        <route edges="229688371#0 229688371#1 229688371#2 688692772"/>
    </vehicle>
    <vehicle id="91" depart="109.20">
        <route edges="964393320#0 964393320#1 964393320#2 964390997 964391619 963150439 22973545#0 22973545#1"/>
    </vehicle>
    <vehicle id="92" depart="110.40">
        <route edges="229688371#0 229688371#1 229688371#2 688692772"/>
    </vehicle>
    <vehicle id="93" depart="111.60">
        <route edges="964390929 963150441#0 963150441#1 963150441#2 963150439 22973545#0 22973545#1"/>
    </vehicle>
    <vehicle id="95" depart="114.00">
        <route edges="229688371#0 229688371#1 229688371#2 688692772"/>
    </vehicle>
    <vehicle id="96" depart="115.20">
        <route edges="1160199981#0 1160199981#1 963150436 963150434 963150432 964390999"/>
    </vehicle>
    <vehicle id="99" depart="118.80">
        <route edges="964393320#0 964393320#1 964393320#2 964390997 964391619 963150439 22973545#0 22973545#1 -22973545#1 -22973545#0 -963150439 985563041 963150436 963150434 963150432 964390999"/>
    </vehicle>
    <vehicle id="100" depart="120.00">
        <route edges="964393320#0 964393320#1 964393320#2 964390997 964391619 963150439 22973545#0 22973545#1 -22973545#1 -22973545#0 -963150439 985563041 963150436 963150434 963150432 964390999"/>
    </vehicle>
    <vehicle id="101" depart="121.20">
        <route edges="964390929 963150441#0 963150441#1 963150441#2 963150439 22973545#0 22973545#1"/>
    </vehicle>
    <vehicle id="105" depart="126.00">
        <route edges="229688365#0 229688365#1 963150439 22973545#0 22973545#1 -22973545#1 -22973545#0 -963150439 985563041 963150436 963150434 963150432 964390999"/>
    </vehicle>
    <vehicle id="106" depart="127.20">
        <route edges="229688371#0 229688371#1 229688371#2 688692772"/>
    </vehicle>
    <vehicle id="107" depart="128.40">
        <route edges="964393320#0 964393320#1 964393320#2 964390997 964391619 963150439 22973545#0 22973545#1 -22973545#1 -22973545#0 -963150439 985563041 963150436 963150434 963150432 964390999"/>
    </vehicle>
    <vehicle id="108" depart="129.60">
        <route edges="229688729#0 229688729#1 229688729#2 964391618 963150437#0 963150437#1"/>
    </vehicle>
    <vehicle id="110" depart="132.00">
        <route edges="964393320#0 964393320#1 964393320#2 964390997 964391619 963150439 22973545#0 22973545#1 -22973545#1 -22973545#0 -963150439 985563041 963150437#0 963150437#1"/>
    </vehicle>
    <vehicle id="111" depart="133.20">
        <route edges="229688729#0 229688729#1 229688729#2 964391618 963150437#0 963150437#1"/>
    </vehicle>
    <vehicle id="112" depart="134.40">
        <route edges="-22973545#1 -22973545#0 -963150439 985563041 963150437#0 963150437#1"/>
    </vehicle>
    <vehicle id="114" depart="136.80">
        <route edges="1160199981#0 1160199981#1 963150436 963150434 963150432 964390999"/>
    </vehicle>
    <vehicle id="115" depart="138.00">
        <route edges="-22973545#1 -22973545#0 -963150439 963150439 22973545#0 22973545#1"/>
    </vehicle>
    <vehicle id="116" depart="139.20">
        <route edges="229688729#0 229688729#1 229688729#2 964391618 963150437#0 963150437#1"/>
    </vehicle>
    <vehicle id="118" depart="141.60">
        <route edges="964393320#0 964393320#1 964393320#2 964390997 964391619 963150439 22973545#0 22973545#1"/>
    </vehicle>
    <vehicle id="119" depart="142.80">
        <route edges="229688729#0 229688729#1 229688729#2 964391618 963150437#0 963150437#1"/>
    </vehicle>
    <vehicle id="122" depart="146.40">
        <route edges="1160199981#0 1160199981#1 963150437#0 963150437#1"/>
    </vehicle>
    <vehicle id="125" depart="150.00">
        <route edges="229688365#0 229688365#1 963150439 22973545#0 22973545#1 -22973545#1 -22973545#0 -963150439 985563041 963150436 963150434 963150432 964390999"/>
    </vehicle>
    <vehicle id="126" depart="151.20">
        <route edges="-22973545#1 -22973545#0 -963150439 963150438 688692772"/>
    </vehicle>
    <vehicle id="127" depart="152.40">
        <route edges="964393320#0 964393320#1 964393320#2 964390997 964391619 963150439 22973545#0 22973545#1 -22973545#1 -22973545#0 -963150439 985563041 963150436 963150434 963150432 964390999"/>
    </vehicle>
    <vehicle id="128" depart="153.60">
        <route edges="-22973545#1 -22973545#0 -963150439 963150439 22973545#0 22973545#1"/>
    </vehicle>
    <vehicle id="129" depart="154.80">
        <route edges="229688365#0 229688365#1 963150439 22973545#0 22973545#1 -22973545#1 -22973545#0 -963150439 985563041 963150436 963150434 963150432 964390999"/>
    </vehicle>
    <vehicle id="130" depart="156.00">
        <route edges="964393320#0 964393320#1 964393320#2 964390997 964391619 963150439 22973545#0 22973545#1 -22973545#1 -22973545#0 -963150439 985563041 963150436 963150434 963150432 964390999"/>
    </vehicle>
    <vehicle id="131" depart="157.20">
        <route edges="229688365#0 229688365#1 963150439 22973545#0 22973545#1"/>
    </vehicle>
    <vehicle id="132" depart="158.40">
        <route edges="964390929 963150441#0 963150441#1 963150441#2 985563041 963150437#0 963150437#1"/>
    </vehicle>
    <vehicle id="135" depart="162.00">
        <route edges="964390929 963150441#0 963150441#1 963150441#2 963150438 688692772"/>
    </vehicle>
    <vehicle id="136" depart="163.20">
        <route edges="963150431#0 963150431#1 963150432 964390999"/>
    </vehicle>
    <vehicle id="138" depart="165.60">
        <route edges="-22973545#1 -22973545#0 -963150439 985563041 963150437#0 963150437#1"/>
    </vehicle>
    <vehicle id="139" depart="166.80">
        <route edges="229688365#0 229688365#1 963150439 22973545#0 22973545#1 -22973545#1 -22973545#0 -963150439 985563041 963150437#0 963150437#1"/>
    </vehicle>
    <vehicle id="143" depart="171.60">
        <route edges="964390929 963150441#0 963150441#1 963150441#2 963150439 22973545#0 22973545#1"/>
    </vehicle>
    <vehicle id="144" depart="172.80">
        <route edges="229688371#0 229688371#1 229688371#2 688692772"/>
    </vehicle>
    <vehicle id="145" depart="174.00">
        <route edges="-22973545#1 -22973545#0 -963150439 985563041 963150436 963150434 963150432 964390999"/>
    </vehicle>
    <vehicle id="149" depart="178.80">
        <route edges="-22973545#1 -22973545#0 -963150439 985563041 963150436 963150434 963150432 964390999"/>
    </vehicle>
    <vehicle id="150" depart="180.00">
        <route edges="964393320#0 964393320#1 964393320#2 964390997 964391619 963150439 22973545#0 22973545#1 -22973545#1 -22973545#0 -963150439 985563041 963150437#0 963150437#1"/>
    </vehicle>
    <vehicle id="151" depart="181.20">
        <route edges="964390929 963150441#0 963150441#1 963150441#2 985563041 963150437#0 963150437#1"/>
    </vehicle>
    <vehicle id="153" depart="183.60">
        <route edges="229688365#0 229688365#1 963150439 22973545#0 22973545#1 -22973545#1 -22973545#0 -963150439 985563041 963150436 963150434 963150432 964390999"/>
    </vehicle>
    <vehicle id="154" depart="184.80">
        <route edges="964390929 963150441#0 963150441#1 963150441#2 985563041 963150436 963150434 963150432 964390999"/>
    </vehicle>
    <vehicle id="155" depart="186.00">
        <route edges="964393320#0 964393320#1 964393320#2 964390997 964391619 963150439 22973545#0 22973545#1"/>
    </vehicle>
    <vehicle id="157" depart="188.40">
        <route edges="964390929 963150441#0 963150441#1 963150441#2 985563041 963150436 963150434 963150432 964390999"/>
    </vehicle>
    <vehicle id="159" depart="190.80">
        <route edges="1160199981#0 1160199981#1 963150436 963150434 963150432 964390999"/>
    </vehicle>
    <vehicle id="160" depart="192.00">
        <route edges="964390929 963150441#0 963150441#1 963150441#2 985563041 963150436 963150434 963150432 964390999"/>
    </vehicle>
    <vehicle id="161" depart="193.20">
        <route edges="964390929 963150441#0 963150441#1 963150441#2 985563041 963150436 963150434 963150432 964390999"/>
    </vehicle>
    <vehicle id="162" depart="194.40">
        <route edges="-22973545#1 -22973545#0 -963150439 985563041 963150437#0 963150437#1"/>
    </vehicle>
    <vehicle id="163" depart="195.60">
        <route edges="229688365#0 229688365#1 963150439 22973545#0 22973545#1 -22973545#1 -22973545#0 -963150439 985563041 963150436 963150434 963150432 964390999"/>
    </vehicle>
    <vehicle id="164" depart="196.80">
        <route edges="964390929 963150441#0 963150441#1 963150441#2 985563041 963150436 963150434 963150432 964390999"/>
    </vehicle>
    <vehicle id="165" depart="198.00">
        <route edges="964390929 963150441#0 963150441#1 963150441#2 963150438 688692772"/>
    </vehicle>
    <vehicle id="166" depart="199.20">
        <route edges="964390929 963150441#0 963150441#1 963150441#2 963150439 22973545#0 22973545#1"/>
    </vehicle>
    <vehicle id="167" depart="200.40">
        <route edges="964390929 963150441#0 963150441#1 963150441#2 985563041 963150436 963150434 963150432 964390999"/>
    </vehicle>
    <vehicle id="168" depart="201.60">
        <route edges="1160199981#0 1160199981#1 963150436 963150434 963150432 964390999"/>
    </vehicle>
    <vehicle id="169" depart="202.80">
        <route edges="229688371#0 229688371#1 229688371#2 688692772"/>
    </vehicle>
    <vehicle id="170" depart="204.00">
        <route edges="964390929 963150441#0 963150441#1 963150441#2 963150439 22973545#0 22973545#1"/>
    </vehicle>
    <vehicle id="171" depart="205.20">
        <route edges="-22973545#1 -22973545#0 -963150439 963150439 22973545#0 22973545#1"/>
    </vehicle>
    <vehicle id="172" depart="206.40">
        <route edges="229688365#0 229688365#1 963150439 22973545#0 22973545#1 -22973545#1 -22973545#0 -963150439 985563041 963150436 963150434 963150432 964390999"/>
    </vehicle>
    <vehicle id="173" depart="207.60">
        <route edges="964393320#0 964393320#1 964393320#2 964390997 964391619 963150438 688692772"/>
    </vehicle>
    <vehicle id="175" depart="210.00">
        <route edges="964393320#0 964393320#1 964393320#2 964390997 964391619 963150439 22973545#0 22973545#1 -22973545#1 -22973545#0 -963150439 985563041 963150437#0 963150437#1"/>
    </vehicle>
    <vehicle id="176" depart="211.20">
        <route edges="964393320#0 964393320#1 964393320#2 964390997 964391619 963150439 22973545#0 22973545#1"/>
    </vehicle>
    <vehicle id="177" depart="212.40">
        <route edges="964393320#0 964393320#1 964393320#2 964390997 964391619 963150439 22973545#0 22973545#1"/>
    </vehicle>
    <vehicle id="178" depart="213.60">
        <route edges="964393320#0 964393320#1 964393320#2 964390997 964391619 963150438 688692772"/>
    </vehicle>
    <vehicle id="179" depart="214.80">
        <route edges="-22973545#1 -22973545#0 -963150439 963150438 688692772"/>
    </vehicle>
    <vehicle id="181" depart="217.20">
        <route edges="229688729#0 229688729#1 229688729#2 964391618 963150437#0 963150437#1"/>
    </vehicle>
    <vehicle id="183" depart="219.60">
        <route edges="229688365#0 229688365#1 963150439 22973545#0 22973545#1 -22973545#1 -22973545#0 -963150439 985563041 963150437#0 963150437#1"/>
    </vehicle>
    <vehicle id="184" depart="220.80">
        <route edges="-22973545#1 -22973545#0 -963150439 985563041 963150436 963150434 963150432 964390999"/>
    </vehicle>
    <vehicle id="185" depart="222.00">
        <route edges="229688729#0 229688729#1 229688729#2 964391618 963150437#0 963150437#1"/>
    </vehicle>
    <vehicle id="187" depart="224.40">
        <route edges="229688365#0 229688365#1 963150439 22973545#0 22973545#1"/>
    </vehicle>
    <vehicle id="189" depart="226.80">
        <route edges="229688365#0 229688365#1 963150439 22973545#0 22973545#1 -22973545#1 -22973545#0 -963150439 985563041 963150436 963150434 963150432 964390999"/>
    </vehicle>
    <vehicle id="191" depart="229.20">
        <route edges="229688365#0 229688365#1 963150439 22973545#0 22973545#1 -22973545#1 -22973545#0 -963150439 963150438 688692772"/>
    </vehicle>
    <vehicle id="192" depart="230.40">
        <route edges="229688371#0 229688371#1 229688371#2 688692772"/>
    </vehicle>
    <vehicle id="194" depart="232.80">
        <route edges="964393320#0 964393320#1 964393320#2 964390997 964391619 963150439 22973545#0 22973545#1 -22973545#1 -22973545#0 -963150439 985563041 963150437#0 963150437#1"/>
    </vehicle>
    <vehicle id="195" depart="234.00">
        <route edges="964393320#0 964393320#1 964393320#2 964390997 964391619 963150439 22973545#0 22973545#1 -22973545#1 -22973545#0 -963150439 985563041 963150437#0 963150437#1"/>
    </vehicle>
    <vehicle id="196" depart="235.20">
        <route edges="229688365#0 229688365#1 963150439 22973545#0 22973545#1 -22973545#1 -22973545#0 -963150439 985563041 963150437#0 963150437#1"/>
    </vehicle>
    <vehicle id="197" depart="236.40">
        <route edges="-22973545#1 -22973545#0 -963150439 963150438 688692772"/>
    </vehicle>
    <vehicle id="202" depart="242.40">
        <route edges="964390929 963150441#0 963150441#1 963150441#2 963150439 22973545#0 22973545#1"/>
    </vehicle>
    <vehicle id="203" depart="243.60">
        <route edges="-22973545#1 -22973545#0 -963150439 985563041 963150437#0 963150437#1"/>
    </vehicle>
    <vehicle id="205" depart="246.00">
        <route edges="964390929 963150441#0 963150441#1 963150441#2 985563041 963150436 963150434 963150432 964390999"/>
    </vehicle>
    <vehicle id="209" depart="250.80">
        <route edges="964390929 963150441#0 963150441#1 963150441#2 963150439 22973545#0 22973545#1"/>
    </vehicle>
    <vehicle id="211" depart="253.20">
        <route edges="1160199981#0 1160199981#1 963150437#0 963150437#1"/>
    </vehicle>
    <vehicle id="214" depart="256.80">
        <route edges="964390929 963150441#0 963150441#1 963150441#2 985563041 963150436 963150434 963150432 964390999"/>
    </vehicle>
    <vehicle id="215" depart="258.00">
        <route edges="-22973545#1 -22973545#0 -963150439 963150438 688692772"/>
    </vehicle>
    <vehicle id="216" depart="259.20">
        <route edges="1160199981#0 1160199981#1 963150436 963150434 963150432 964390999"/>
    </vehicle>
    <vehicle id="218" depart="261.60">
        <route edges="1160199981#0 1160199981#1 963150436 963150434 963150432 964390999"/>
    </vehicle>
    <vehicle id="220" depart="264.00">
        <route edges="963150431#0 963150431#1 963150432 964390999"/>
    </vehicle>
    <vehicle id="222" depart="266.40">
        <route edges="964393320#0 964393320#1 964393320#2 964390997 964391619 963150439 22973545#0 22973545#1 -22973545#1 -22973545#0 -963150439 985563041 963150437#0 963150437#1"/>
    </vehicle>
    <vehicle id="224" depart="268.80">
        <route edges="964390929 963150441#0 963150441#1 963150441#2 985563041 963150437#0 963150437#1"/>
    </vehicle>
    <vehicle id="225" depart="270.00">
        <route edges="964393320#0 964393320#1 964393320#2 964390997 964391619 963150439 22973545#0 22973545#1 -22973545#1 -22973545#0 -963150439 985563041 963150437#0 963150437#1"/>
    </vehicle>
    <vehicle id="226" depart="271.20">
        <route edges="229688371#0 229688371#1 229688371#2 688692772"/>
    </vehicle>
    <vehicle id="227" depart="272.40">
        <route edges="1160199981#0 1160199981#1 963150437#0 963150437#1"/>
    </vehicle>
    <vehicle id="228" depart="273.60">
        <route edges="964390929 963150441#0 963150441#1 963150441#2 985563041 963150437#0 963150437#1"/>
    </vehicle>
    <vehicle id="230" depart="276.00">
        <route edges="-22973545#1 -22973545#0 -963150439 963150438 688692772"/>
    </vehicle>
    <vehicle id="231" depart="277.20">
        <route edges="229688365#0 229688365#1 963150439 22973545#0 22973545#1 -22973545#1 -22973545#0 -963150439 963150438 688692772"/>
    </vehicle>
    <vehicle id="233" depart="279.60">
        <route edges="1160199981#0 1160199981#1 963150437#0 963150437#1"/>
    </vehicle>
    <vehicle id="238" depart="285.60">
        <route edges="229688729#0 229688729#1 229688729#2 964391618 963150437#0 963150437#1"/>
    </vehicle>
    <vehicle id="239" depart="286.80">
        <route edges="964390929 963150441#0 963150441#1 963150441#2 985563041 963150436 963150434 963150432 964390999"/>
    </vehicle>
    <vehicle id="241" depart="289.20">
        <route edges="229688365#0 229688365#1 963150439 22973545#0 22973545#1 -22973545#1 -22973545#0 -963150439 985563041 963150436 963150434 963150432 964390999"/>
    </vehicle>
    <vehicle id="242" depart="290.40">
        <route edges="964390929 963150441#0 963150441#1 963150441#2 985563041 963150436 963150434 963150432 964390999"/>
    </vehicle>
    <vehicle id="244" depart="292.80">
        <route edges="229688729#0 229688729#1 229688729#2 964391618 963150437#0 963150437#1"/>
    </vehicle>
    <vehicle id="247" depart="296.40">
        <route edges="229688365#0 229688365#1 963150439 22973545#0 22973545#1 -22973545#1 -22973545#0 -963150439 985563041 963150437#0 963150437#1"/>
    </vehicle>
    <vehicle id="252" depart="302.40">
        <route edges="-22973545#1 -22973545#0 -963150439 985563041 963150437#0 963150437#1"/>
    </vehicle>
    <vehicle id="254" depart="304.80">
        <route edges="-22973545#1 -22973545#0 -963150439 963150438 688692772"/>
    </vehicle>
    <vehicle id="256" depart="307.20">
        <route edges="964390929 963150441#0 963150441#1 963150441#2 963150438 688692772"/>
    </vehicle>
    <vehicle id="257" depart="308.40">
        <route edges="964390929 963150441#0 963150441#1 963150441#2 985563041 963150436 963150434 963150432 964390999"/>
    </vehicle>
    <vehicle id="258" depart="309.60">
        <route edges="229688365#0 229688365#1 963150439 22973545#0 22973545#1"/>
    </vehicle>
    <vehicle id="259" depart="310.80">
        <route edges="-22973545#1 -22973545#0 -963150439 985563041 963150437#0 963150437#1"/>
    </vehicle>
    <vehicle id="260" depart="312.00">
        <route edges="964393320#0 964393320#1 964393320#2 964390997 964391619 963150438 688692772"/>
    </vehicle>
    <vehicle id="261" depart="313.20">
        <route edges="963150431#0 963150431#1 963150432 964390999"/>
    </vehicle>
    <vehicle id="262" depart="314.40">
        <route edges="963150431#0 963150431#1 963150432 964390999"/>
    </vehicle>
    <vehicle id="263" depart="315.60">
        <route edges="964393320#0 964393320#1 964393320#2 964390997 964391619 963150439 22973545#0 22973545#1"/>
    </vehicle>
    <vehicle id="264" depart="316.80">
        <route edges="-22973545#1 -22973545#0 -963150439 963150439 22973545#0 22973545#1"/>
    </vehicle>
    <vehicle id="265" depart="318.00">
        <route edges="1160199981#0 1160199981#1 963150437#0 963150437#1"/>
    </vehicle>
    <vehicle id="267" depart="320.40">