<?xml version="1.0" encoding="UTF-8"?>

<!-- generated on 2024-09-03 01:38:39 by Eclipse SUMO netconvert Version 1.20.0
<configuration xmlns:xsi="http://www.w3.org/2001/XMLSchema-instance" xsi:noNamespaceSchemaLocation="http://sumo.dlr.de/xsd/netconvertConfiguration.xsd">

    <input>
        <osm-files value="train_files/intersection/hard/osm_files/int_0.osm"/>
    </input>

    <output>
        <output-file value="train_files/intersection/hard/outputs/int_0_dict/int_0/int_0.net.xml"/>
    </output>

    <projection>
        <proj.utm value="true"/>
    </projection>

    <building_defaults>
        <default.junctions.keep-clear value="false"/>
    </building_defaults>

</configuration>
-->

<net version="1.20" junctionCornerDetail="5" limitTurnSpeed="5.50" xmlns:xsi="http://www.w3.org/2001/XMLSchema-instance" xsi:noNamespaceSchemaLocation="http://sumo.dlr.de/xsd/net_file.xsd">

    <location netOffset="-549047.38,-4174562.07" convBoundary="0.00,0.00,416.69,485.98" origBoundary="-122.443491,37.717000,-122.438730,37.721358" projParameter="+proj=utm +zone=10 +ellps=WGS84 +datum=WGS84 +units=m +no_defs"/>

    <type id="highway.primary" priority="12" numLanes="2" speed="27.78" disallow="tram rail_urban rail rail_electric rail_fast ship container cable_car subway aircraft wheelchair scooter drone" oneway="0"/>
    <type id="highway.service" priority="1" numLanes="1" speed="5.56" allow="pedestrian delivery bicycle" oneway="0"/>

    <edge id=":11793187565_0" function="internal">
        <lane id=":11793187565_0_0" index="0" disallow="tram rail_urban rail rail_electric rail_fast ship container cable_car subway aircraft wheelchair scooter drone" speed="15.65" length="0.30" shape="198.83,182.25 199.04,182.46"/>
        <lane id=":11793187565_0_1" index="1" disallow="tram rail_urban rail rail_electric rail_fast ship container cable_car subway aircraft wheelchair scooter drone" speed="15.65" length="0.30" shape="196.57,184.51 196.78,184.72"/>
    </edge>
    <edge id=":11793312869_0" function="internal">
        <lane id=":11793312869_0_0" index="0" disallow="tram rail_urban rail rail_electric rail_fast ship container cable_car subway aircraft wheelchair scooter drone" speed="15.65" length="0.30" shape="188.88,172.28 189.09,172.49"/>
        <lane id=":11793312869_0_1" index="1" disallow="tram rail_urban rail rail_electric rail_fast ship container cable_car subway aircraft wheelchair scooter drone" speed="15.65" length="0.30" shape="186.62,174.54 186.83,174.75"/>
    </edge>
    <edge id=":11793312870_0" function="internal">
        <lane id=":11793312870_0_0" index="0" disallow="tram rail_urban rail rail_electric rail_fast ship container cable_car subway aircraft wheelchair scooter drone" speed="15.65" length="0.30" shape="179.15,182.65 178.93,182.44"/>
        <lane id=":11793312870_0_1" index="1" disallow="tram rail_urban rail rail_electric rail_fast ship container cable_car subway aircraft wheelchair scooter drone" speed="15.65" length="0.30" shape="181.41,180.38 181.19,180.17"/>
        <lane id=":11793312870_0_2" index="2" disallow="tram rail_urban rail rail_electric rail_fast ship container cable_car subway aircraft wheelchair scooter drone" speed="15.65" length="0.30" shape="183.66,178.12 183.45,177.91"/>
    </edge>
    <edge id=":2511971962_0" function="internal">
        <lane id=":2511971962_0_0" index="0" disallow="tram rail_urban rail rail_electric rail_fast ship container cable_car subway aircraft wheelchair scooter drone" speed="3.65" length="4.67" shape="156.79,33.07 158.21,32.79 159.06,33.07 159.34,33.92 159.05,35.34"/>
    </edge>
    <edge id=":2511971964_0" function="internal">
        <lane id=":2511971964_0_0" index="0" disallow="tram rail_urban rail rail_electric rail_fast ship container cable_car subway aircraft wheelchair scooter drone" speed="6.87" length="10.17" shape="114.99,88.41 113.08,90.82 112.27,93.10 112.59,95.27 114.01,97.31"/>
    </edge>
    <edge id=":2511971964_1" function="internal">
        <lane id=":2511971964_1_0" index="0" disallow="tram rail_urban rail rail_electric rail_fast ship container cable_car subway aircraft wheelchair scooter drone" speed="27.78" length="14.33" shape="114.99,88.41 111.69,91.01 108.96,92.18 106.19,93.31 102.78,95.80"/>
        <lane id=":2511971964_1_1" index="1" disallow="tram rail_urban rail rail_electric rail_fast ship container cable_car subway aircraft wheelchair scooter drone" speed="27.78" length="14.33" shape="112.73,86.15 109.45,88.72 106.74,89.87 103.99,90.99 100.61,93.46"/>
    </edge>
    <edge id=":2511971964_3" function="internal">
        <lane id=":2511971964_3_0" index="0" disallow="tram rail_urban rail rail_electric rail_fast ship container cable_car subway aircraft wheelchair scooter drone" speed="3.65" length="1.44" shape="110.47,83.88 109.05,84.17"/>
    </edge>
    <edge id=":2511971964_12" function="internal">
        <lane id=":2511971964_12_0" index="0" disallow="tram rail_urban rail rail_electric rail_fast ship container cable_car subway aircraft wheelchair scooter drone" speed="3.65" length="3.23" shape="109.05,84.17 108.20,83.88 107.92,83.03 108.20,81.62"/>
    </edge>
    <edge id=":2511971964_4" function="internal">
        <lane id=":2511971964_4_0" index="0" disallow="tram rail_urban rail rail_electric rail_fast ship container cable_car subway aircraft wheelchair scooter drone" speed="6.72" length="9.46" shape="97.58,79.13 99.77,80.70 101.89,81.26 103.95,80.81 105.94,79.36"/>
    </edge>
    <edge id=":2511971964_5" function="internal">
        <lane id=":2511971964_5_0" index="0" disallow="tram rail_urban rail rail_electric rail_fast ship container cable_car subway aircraft wheelchair scooter drone" speed="15.65" length="24.44" shape="97.58,79.13 114.01,97.31"/>
        <lane id=":2511971964_5_1" index="1" disallow="tram rail_urban rail rail_electric rail_fast ship container cable_car subway aircraft wheelchair scooter drone" speed="15.65" length="24.44" shape="95.40,81.47 111.75,99.57"/>
    </edge>
    <edge id=":2511971964_7" function="internal">
        <lane id=":2511971964_7_0" index="0" disallow="tram rail_urban rail rail_electric rail_fast ship container cable_car subway aircraft wheelchair scooter drone" speed="7.36" length="12.52" shape="93.21,83.81 97.00,87.52 99.50,90.36 100.70,92.34 100.61,93.46"/>
    </edge>
    <edge id=":2511971964_8" function="internal">
        <lane id=":2511971964_8_0" index="0" disallow="tram rail_urban rail rail_electric rail_fast ship container cable_car subway aircraft wheelchair scooter drone" speed="27.78" length="13.55" shape="96.26,88.76 105.94,79.36"/>
        <lane id=":2511971964_8_1" index="1" disallow="tram rail_urban rail rail_electric rail_fast ship container cable_car subway aircraft wheelchair scooter drone" speed="27.78" length="13.55" shape="98.44,91.11 108.20,81.62"/>
    </edge>
    <edge id=":2511971964_10" function="internal">
        <lane id=":2511971964_10_0" index="0" disallow="tram rail_urban rail rail_electric rail_fast ship container cable_car subway aircraft wheelchair scooter drone" speed="8.69" length="1.66" shape="98.44,91.11 100.06,90.79"/>
    </edge>
    <edge id=":2511971964_11" function="internal">
        <lane id=":2511971964_11_0" index="0" disallow="tram rail_urban rail rail_electric rail_fast ship container cable_car subway aircraft wheelchair scooter drone" speed="3.65" length="1.44" shape="98.44,91.11 99.86,90.88"/>
    </edge>
    <edge id=":2511971964_13" function="internal">
        <lane id=":2511971964_13_0" index="0" disallow="tram rail_urban rail rail_electric rail_fast ship container cable_car subway aircraft wheelchair scooter drone" speed="8.69" length="14.78" shape="100.06,90.79 100.21,90.76 103.03,92.06 106.87,94.99 111.75,99.57"/>
    </edge>
    <edge id=":2511971964_14" function="internal">
        <lane id=":2511971964_14_0" index="0" disallow="tram rail_urban rail rail_electric rail_fast ship container cable_car subway aircraft wheelchair scooter drone" speed="3.65" length="3.23" shape="99.86,90.88 100.70,91.19 100.95,92.05 100.61,93.46"/>
    </edge>
    <edge id=":2511971979_0" function="internal">
        <lane id=":2511971979_0_0" index="0" disallow="tram rail_urban rail rail_electric rail_fast ship container cable_car subway aircraft wheelchair scooter drone" speed="6.55" length="9.23" shape="101.17,105.52 99.09,104.00 97.05,103.49 95.05,103.99 93.10,105.52"/>
    </edge>
    <edge id=":2511971979_1" function="internal">
        <lane id=":2511971979_1_0" index="0" disallow="tram rail_urban rail rail_electric rail_fast ship container cable_car subway aircraft wheelchair scooter drone" speed="15.65" length="24.29" shape="101.17,105.52 84.96,87.41"/>
        <lane id=":2511971979_1_1" index="1" disallow="tram rail_urban rail rail_electric rail_fast ship container cable_car subway aircraft wheelchair scooter drone" speed="15.65" length="24.29" shape="103.40,103.22 87.21,85.13"/>
    </edge>
    <edge id=":2511971979_3" function="internal">
        <lane id=":2511971979_3_0" index="0" disallow="tram rail_urban rail rail_electric rail_fast ship container cable_car subway aircraft wheelchair scooter drone" speed="7.39" length="12.46" shape="105.62,100.92 101.90,97.16 99.44,94.30 98.23,92.32 98.29,91.24"/>
    </edge>
    <edge id=":2511971979_4" function="internal">
        <lane id=":2511971979_4_0" index="0" disallow="tram rail_urban rail rail_electric rail_fast ship container cable_car subway aircraft wheelchair scooter drone" speed="27.78" length="13.62" shape="102.64,95.94 93.10,105.52"/>
        <lane id=":2511971979_4_1" index="1" disallow="tram rail_urban rail rail_electric rail_fast ship container cable_car subway aircraft wheelchair scooter drone" speed="27.78" length="13.62" shape="100.46,93.59 90.78,103.31"/>
    </edge>
    <edge id=":2511971979_6" function="internal">
        <lane id=":2511971979_6_0" index="0" disallow="tram rail_urban rail rail_electric rail_fast ship container cable_car subway aircraft wheelchair scooter drone" speed="8.67" length="1.66" shape="100.46,93.59 98.83,93.92"/>
    </edge>
    <edge id=":2511971979_7" function="internal">
        <lane id=":2511971979_7_0" index="0" disallow="tram rail_urban rail rail_electric rail_fast ship container cable_car subway aircraft wheelchair scooter drone" speed="3.65" length="1.44" shape="100.46,93.59 99.04,93.82"/>
    </edge>
    <edge id=":2511971979_12" function="internal">
        <lane id=":2511971979_12_0" index="0" disallow="tram rail_urban rail rail_electric rail_fast ship container cable_car subway aircraft wheelchair scooter drone" speed="8.67" length="14.74" shape="98.83,93.92 98.68,93.95 95.87,92.66 92.05,89.72 87.21,85.13"/>
    </edge>
    <edge id=":2511971979_13" function="internal">
        <lane id=":2511971979_13_0" index="0" disallow="tram rail_urban rail rail_electric rail_fast ship container cable_car subway aircraft wheelchair scooter drone" speed="3.65" length="3.23" shape="99.04,93.82 98.20,93.50 97.95,92.64 98.29,91.24"/>
    </edge>
    <edge id=":2511971979_8" function="internal">
        <lane id=":2511971979_8_0" index="0" disallow="tram rail_urban rail rail_electric rail_fast ship container cable_car subway aircraft wheelchair scooter drone" speed="7.05" length="10.54" shape="83.82,96.69 85.79,94.12 86.64,91.71 86.36,89.48 84.96,87.41"/>
    </edge>
    <edge id=":2511971979_9" function="internal">
        <lane id=":2511971979_9_0" index="0" disallow="tram rail_urban rail rail_electric rail_fast ship container cable_car subway aircraft wheelchair scooter drone" speed="27.78" length="14.57" shape="83.82,96.69 87.11,93.95 89.85,92.67 92.65,91.46 96.12,88.89"/>
        <lane id=":2511971979_9_1" index="1" disallow="tram rail_urban rail rail_electric rail_fast ship container cable_car subway aircraft wheelchair scooter drone" speed="27.78" length="14.57" shape="86.14,98.90 89.39,96.20 92.10,94.95 94.86,93.76 98.29,91.24"/>
    </edge>
    <edge id=":2511971979_11" function="internal">
        <lane id=":2511971979_11_0" index="0" disallow="tram rail_urban rail rail_electric rail_fast ship container cable_car subway aircraft wheelchair scooter drone" speed="3.65" length="1.44" shape="88.46,101.11 89.87,100.79"/>
    </edge>
    <edge id=":2511971979_14" function="internal">
        <lane id=":2511971979_14_0" index="0" disallow="tram rail_urban rail rail_electric rail_fast ship container cable_car subway aircraft wheelchair scooter drone" speed="3.65" length="3.23" shape="89.87,100.79 90.72,101.05 91.03,101.89 90.78,103.31"/>
    </edge>
    <edge id=":258972875_0" function="internal">
        <lane id=":258972875_0_0" index="0" disallow="tram rail_urban rail rail_electric rail_fast ship container cable_car subway aircraft wheelchair scooter drone" speed="15.65" length="0.30" shape="193.13,176.53 193.34,176.74"/>
        <lane id=":258972875_0_1" index="1" disallow="tram rail_urban rail rail_electric rail_fast ship container cable_car subway aircraft wheelchair scooter drone" speed="15.65" length="0.30" shape="190.86,178.79 191.08,179.00"/>
    </edge>
    <edge id=":3999294957_0" function="internal">
        <lane id=":3999294957_0_0" index="0" disallow="tram rail_urban rail rail_electric rail_fast ship container cable_car subway aircraft wheelchair scooter drone" speed="15.65" length="0.30" shape="136.86,140.49 136.67,140.30"/>
        <lane id=":3999294957_0_1" index="1" disallow="tram rail_urban rail rail_electric rail_fast ship container cable_car subway aircraft wheelchair scooter drone" speed="15.65" length="0.30" shape="139.12,138.22 138.91,138.02"/>
        <lane id=":3999294957_0_2" index="2" disallow="tram rail_urban rail rail_electric rail_fast ship container cable_car subway aircraft wheelchair scooter drone" speed="15.65" length="0.30" shape="141.38,135.96 141.15,135.73"/>
    </edge>
    <edge id=":4105030828_0" function="internal">
        <lane id=":4105030828_0_0" index="0" disallow="tram rail_urban rail rail_electric rail_fast ship container cable_car subway aircraft wheelchair scooter drone" speed="27.78" length="0.15" shape="136.36,67.05 136.25,67.16"/>
        <lane id=":4105030828_0_1" index="1" disallow="tram rail_urban rail rail_electric rail_fast ship container cable_car subway aircraft wheelchair scooter drone" speed="27.78" length="0.15" shape="134.10,64.79 133.99,64.90"/>
        <lane id=":4105030828_0_2" index="2" disallow="tram rail_urban rail rail_electric rail_fast ship container cable_car subway aircraft wheelchair scooter drone" speed="27.78" length="0.15" shape="131.83,62.53 131.73,62.63"/>
    </edge>
    <edge id=":4105030828_3" function="internal">
        <lane id=":4105030828_3_0" index="0" disallow="tram rail_urban rail rail_electric rail_fast ship container cable_car subway aircraft wheelchair scooter drone" speed="27.78" length="0.15" shape="127.20,58.11 127.31,58.00"/>
        <lane id=":4105030828_3_1" index="1" disallow="tram rail_urban rail rail_electric rail_fast ship container cable_car subway aircraft wheelchair scooter drone" speed="27.78" length="0.15" shape="129.47,60.37 129.57,60.26"/>
    </edge>
    <edge id=":4179485285_0" function="internal">
        <lane id=":4179485285_0_0" index="0" disallow="tram rail_urban rail rail_electric rail_fast ship container cable_car subway aircraft wheelchair scooter drone" speed="27.78" length="7.09" shape="80.05,119.23 75.17,124.36"/>
        <lane id=":4179485285_0_1" index="1" disallow="tram rail_urban rail rail_electric rail_fast ship container cable_car subway aircraft wheelchair scooter drone" speed="27.78" length="7.09" shape="77.73,117.02 72.85,122.16"/>
    </edge>
    <edge id=":4179485285_2" function="internal">
        <lane id=":4179485285_2_0" index="0" disallow="tram rail_urban rail rail_electric rail_fast ship container cable_car subway aircraft wheelchair scooter drone" speed="27.78" length="7.71" shape="68.20,117.77 69.35,115.82 69.48,114.08 69.62,112.35 70.78,110.40"/>
        <lane id=":4179485285_2_1" index="1" disallow="tram rail_urban rail rail_electric rail_fast ship container cable_car subway aircraft wheelchair scooter drone" speed="27.78" length="7.71" shape="70.52,119.97 71.68,118.02 71.80,116.28 71.94,114.55 73.09,112.61"/>
        <lane id=":4179485285_2_2" index="2" disallow="tram rail_urban rail rail_electric rail_fast ship container cable_car subway aircraft wheelchair scooter drone" speed="27.78" length="7.71" shape="70.52,119.97 75.41,114.81"/>
    </edge>
    <edge id=":65313849_0" function="internal">
        <lane id=":65313849_0_0" index="0" disallow="tram rail_urban rail rail_electric rail_fast ship container cable_car subway aircraft wheelchair scooter drone" speed="3.65" length="4.67" shape="10.50,185.76 9.09,186.05 8.24,185.77 7.95,184.92 8.23,183.51"/>
    </edge>
    <edge id=":9976655385_0" function="internal">
        <lane id=":9976655385_0_0" index="0" disallow="tram rail_urban rail rail_electric rail_fast ship container cable_car subway aircraft wheelchair scooter drone" speed="27.78" length="8.54" shape="75.03,124.51 69.15,130.70"/>
        <lane id=":9976655385_0_1" index="1" disallow="tram rail_urban rail rail_electric rail_fast ship container cable_car subway aircraft wheelchair scooter drone" speed="27.78" length="8.54" shape="72.71,122.31 66.83,128.50"/>
    </edge>
    <edge id=":9976655385_2" function="internal">
        <lane id=":9976655385_2_0" index="0" allow="pedestrian delivery bicycle" speed="7.52" length="2.37" shape="72.71,122.31 70.70,123.57"/>
    </edge>
    <edge id=":9976655385_9" function="internal">
        <lane id=":9976655385_9_0" index="0" allow="pedestrian delivery bicycle" speed="7.52" length="9.81" shape="70.70,123.57 68.25,123.55 65.36,122.26 62.04,119.70"/>
    </edge>
    <edge id=":9976655385_3" function="internal">
        <lane id=":9976655385_3_0" index="0" allow="pedestrian delivery bicycle" speed="4.82" length="4.40" shape="64.18,117.32 65.32,118.17 66.35,118.55 67.26,118.46 68.06,117.91"/>
    </edge>
    <edge id=":9976655385_4" function="internal">
        <lane id=":9976655385_4_0" index="0" allow="pedestrian delivery bicycle" speed="7.62" length="13.02" shape="64.18,117.32 67.03,120.44 68.42,123.35 68.35,126.03 66.83,128.50"/>
    </edge>
    <edge id=":9976655385_5" function="internal">
        <lane id=":9976655385_5_0" index="0" allow="pedestrian delivery bicycle" speed="3.65" length="4.67" shape="64.18,117.32 64.53,118.72 64.30,119.58 63.46,119.91 62.04,119.70"/>
    </edge>
    <edge id=":9976655385_6" function="internal">
        <lane id=":9976655385_6_0" index="0" allow="pedestrian delivery bicycle" speed="5.01" length="5.03" shape="62.20,124.08 63.00,122.95 63.24,121.85 62.92,120.76 62.04,119.70"/>
    </edge>
    <edge id=":9976655385_7" function="internal">
        <lane id=":9976655385_7_0" index="0" disallow="tram rail_urban rail rail_electric rail_fast ship container cable_car subway aircraft wheelchair scooter drone" speed="27.78" length="8.52" shape="62.20,124.08 68.06,117.91"/>
        <lane id=":9976655385_7_1" index="1" disallow="tram rail_urban rail rail_electric rail_fast ship container cable_car subway aircraft wheelchair scooter drone" speed="27.78" length="8.52" shape="64.52,126.29 70.38,120.11"/>
    </edge>
    <edge id=":9976655389_0" function="internal">
        <lane id=":9976655389_0_0" index="0" allow="pedestrian delivery bicycle" speed="4.05" length="2.88" shape="58.90,87.65 58.37,86.98 58.15,86.34 58.25,85.72 58.65,85.12"/>
    </edge>
    <edge id=":9976655389_1" function="internal">
        <lane id=":9976655389_1_0" index="0" allow="pedestrian delivery bicycle" speed="5.56" length="6.78" shape="58.90,87.65 54.09,82.88"/>
    </edge>
    <edge id=":9976655389_2" function="internal">
        <lane id=":9976655389_2_0" index="0" allow="pedestrian delivery bicycle" speed="5.56" length="7.46" shape="58.90,87.65 57.48,85.88 56.87,84.21 57.08,82.62 58.09,81.12"/>
    </edge>
    <edge id=":9976655389_3" function="internal">
        <lane id=":9976655389_3_0" index="0" allow="pedestrian delivery bicycle" speed="3.65" length="4.67" shape="58.90,87.65 58.61,86.24 58.89,85.39 59.74,85.10 61.16,85.38"/>
    </edge>
    <edge id=":9976655389_4" function="internal">
        <lane id=":9976655389_4_0" index="0" allow="pedestrian delivery bicycle" speed="5.56" length="1.00" shape="57.96,85.83 58.65,85.12"/>
    </edge>
    <edge id=":9976655389_5" function="internal">
        <lane id=":9976655389_5_0" index="0" allow="pedestrian delivery bicycle" speed="5.04" length="5.03" shape="57.96,85.83 57.16,85.77 56.03,84.89 54.90,83.74 54.09,82.88"/>
    </edge>
    <edge id=":9976655389_6" function="internal">
        <lane id=":9976655389_6_0" index="0" allow="pedestrian delivery bicycle" speed="4.46" length="3.67" shape="57.96,85.83 58.83,85.12 59.66,84.80 60.43,84.89 61.16,85.38"/>
    </edge>
    <edge id=":9976655389_7" function="internal">
        <lane id=":9976655389_7_0" index="0" allow="pedestrian delivery bicycle" speed="4.19" length="6.88" shape="57.96,85.83 56.22,84.61 55.67,83.41 56.29,82.25 58.09,81.12"/>
    </edge>
    <edge id=":9976655389_8" function="internal">
        <lane id=":9976655389_8_0" index="0" allow="pedestrian delivery bicycle" speed="5.56" length="4.58" shape="57.91,82.16 61.16,85.38"/>
    </edge>
    <edge id=":9976655389_9" function="internal">
        <lane id=":9976655389_9_0" index="0" allow="pedestrian delivery bicycle" speed="4.35" length="3.42" shape="57.91,82.16 58.65,83.03 59.02,83.81 59.02,84.51 58.65,85.12"/>
    </edge>
    <edge id=":9976655389_10" function="internal">
        <lane id=":9976655389_10_0" index="0" allow="pedestrian delivery bicycle" speed="2.97" length="1.05" shape="57.91,82.16 58.09,81.12"/>
    </edge>
    <edge id=":9976655389_11" function="internal">
        <lane id=":9976655389_11_0" index="0" allow="pedestrian delivery bicycle" speed="3.90" length="5.67" shape="57.91,82.16 57.22,83.77 56.36,84.43 55.32,84.13 54.09,82.88"/>
    </edge>
    <edge id=":9976655389_12" function="internal">
        <lane id=":9976655389_12_0" index="0" allow="pedestrian delivery bicycle" speed="4.94" length="4.71" shape="52.48,86.90 53.62,85.57 54.27,84.46 54.43,83.56 54.09,82.88"/>
    </edge>
    <edge id=":9976655389_13" function="internal">
        <lane id=":9976655389_13_0" index="0" allow="pedestrian delivery bicycle" speed="5.56" length="8.05" shape="52.48,86.90 58.09,81.12"/>
    </edge>
    <edge id=":9976655389_14" function="internal">
        <lane id=":9976655389_14_0" index="0" allow="pedestrian delivery bicycle" speed="5.56" length="9.99" shape="52.48,86.90 54.90,84.87 57.15,83.94 59.24,84.11 61.16,85.38"/>
    </edge>
    <edge id=":9976655389_15" function="internal">
        <lane id=":9976655389_15_0" index="0" allow="pedestrian delivery bicycle" speed="4.72" length="9.38" shape="52.48,86.90 53.36,84.14 54.68,82.93 56.44,83.25 58.65,85.12"/>
    </edge>
    <edge id=":9976655390_0" function="internal">
        <lane id=":9976655390_0_0" index="0" allow="pedestrian delivery bicycle" speed="5.56" length="3.71" shape="73.63,97.72 71.05,100.39"/>
    </edge>
    <edge id=":9976655390_1" function="internal">
        <lane id=":9976655390_1_0" index="0" allow="pedestrian delivery bicycle" speed="5.56" length="7.69" shape="73.63,97.72 72.40,98.39 70.88,98.25 69.08,97.30 66.99,95.55"/>
    </edge>
    <edge id=":9976655390_2" function="internal">
        <lane id=":9976655390_2_0" index="0" allow="pedestrian delivery bicycle" speed="3.65" length="4.68" shape="73.63,97.72 72.23,98.06 71.37,97.80 71.06,96.97 71.29,95.54"/>
    </edge>
    <edge id=":9976655390_3" function="internal">
        <lane id=":9976655390_3_0" index="0" allow="pedestrian delivery bicycle" speed="4.32" length="3.33" shape="69.22,93.25 69.74,94.00 70.25,94.92 70.76,95.58 71.29,95.54"/>
    </edge>
    <edge id=":9976655390_4" function="internal">
        <lane id=":9976655390_4_0" index="0" allow="pedestrian delivery bicycle" speed="5.56" length="8.25" shape="69.22,93.25 71.01,95.32 71.91,97.20 71.93,98.89 71.05,100.39"/>
    </edge>
    <edge id=":9976655390_5" function="internal">
        <lane id=":9976655390_5_0" index="0" allow="pedestrian delivery bicycle" speed="3.65" length="4.67" shape="69.22,93.25 69.52,94.66 69.25,95.51 68.41,95.81 66.99,95.55"/>
    </edge>
    <edge id=":9976655390_6" function="internal">
        <lane id=":9976655390_6_0" index="0" allow="pedestrian delivery bicycle" speed="4.34" length="3.40" shape="68.72,98.20 68.84,97.58 68.38,96.86 67.66,96.15 66.99,95.55"/>
    </edge>
    <edge id=":9976655390_7" function="internal">
        <lane id=":9976655390_7_0" index="0" allow="pedestrian delivery bicycle" speed="5.56" length="3.70" shape="68.72,98.20 71.29,95.54"/>
    </edge>
    <edge id=":9976655390_8" function="internal">
        <lane id=":9976655390_8_0" index="0" allow="pedestrian delivery bicycle" speed="3.65" length="4.67" shape="68.72,98.20 70.12,97.87 70.98,98.13 71.29,98.97 71.05,100.39"/>
    </edge>
    <edge id=":9976655391_0" function="internal">
        <lane id=":9976655391_0_0" index="0" allow="pedestrian delivery bicycle" speed="5.56" length="6.32" shape="70.91,100.54 66.53,105.09"/>
    </edge>
    <edge id=":9976655391_1" function="internal">
        <lane id=":9976655391_1_0" index="0" allow="pedestrian delivery bicycle" speed="5.56" length="8.53" shape="70.91,100.54 69.40,101.56 67.67,101.64 65.72,100.77 63.55,98.95"/>
    </edge>
    <edge id=":9976655391_2" function="internal">
        <lane id=":9976655391_2_0" index="0" allow="pedestrian delivery bicycle" speed="3.65" length="4.67" shape="70.91,100.54 69.51,100.87 68.65,100.61 68.34,99.77 68.58,98.35"/>
    </edge>
    <edge id=":9976655391_3" function="internal">
        <lane id=":9976655391_3_0" index="0" allow="pedestrian delivery bicycle" speed="4.31" length="3.46" shape="65.81,96.69 66.44,97.35 67.20,98.06 67.96,98.50 68.58,98.35"/>
    </edge>
    <edge id=":9976655391_4" function="internal">
        <lane id=":9976655391_4_0" index="0" allow="pedestrian delivery bicycle" speed="5.56" length="9.57" shape="65.81,96.69 67.55,98.91 68.25,101.05 67.91,103.11 66.53,105.09"/>
    </edge>
    <edge id=":9976655391_5" function="internal">
        <lane id=":9976655391_5_0" index="0" allow="pedestrian delivery bicycle" speed="3.65" length="4.67" shape="65.81,96.69 66.09,98.11 65.81,98.95 64.96,99.24 63.55,98.95"/>
    </edge>
    <edge id=":9976655391_6" function="internal">
        <lane id=":9976655391_6_0" index="0" allow="pedestrian delivery bicycle" speed="4.83" length="4.47" shape="64.24,102.85 64.79,102.00 64.86,101.07 64.44,100.05 63.55,98.95"/>
    </edge>
    <edge id=":9976655391_7" function="internal">
        <lane id=":9976655391_7_0" index="0" allow="pedestrian delivery bicycle" speed="5.56" length="6.25" shape="64.24,102.85 68.58,98.35"/>
    </edge>
    <edge id=":9976655391_8" function="internal">
        <lane id=":9976655391_8_0" index="0" allow="pedestrian delivery bicycle" speed="3.65" length="4.67" shape="64.24,102.85 65.65,102.55 66.50,102.83 66.80,103.67 66.53,105.09"/>
    </edge>
    <edge id=":9976655393_0" function="internal">
        <lane id=":9976655393_0_0" index="0" allow="pedestrian delivery bicycle" speed="5.56" length="16.40" shape="53.95,82.74 50.29,79.55 48.92,79.49 49.83,82.55 53.03,88.75"/>
    </edge>
    <edge id=":9976655393_1" function="internal">
        <lane id=":9976655393_1_0" index="0" allow="pedestrian delivery bicycle" speed="5.56" length="6.41" shape="53.95,82.74 54.19,81.80 55.48,80.37 57.03,78.93 58.06,77.98"/>
    </edge>
    <edge id=":9976655393_2" function="internal">
        <lane id=":9976655393_2_0" index="0" allow="pedestrian delivery bicycle" speed="3.90" length="5.67" shape="53.95,82.74 54.63,81.13 55.49,80.47 56.54,80.77 57.76,82.02"/>
    </edge>
    <edge id=":9976655393_3" function="internal">
        <lane id=":9976655393_3_0" index="0" allow="pedestrian delivery bicycle" speed="5.56" length="12.03" shape="49.61,86.54 58.06,77.98"/>
    </edge>
    <edge id=":9976655393_4" function="internal">
        <lane id=":9976655393_4_0" index="0" allow="pedestrian delivery bicycle" speed="5.56" length="9.90" shape="49.61,86.54 52.48,83.88 54.80,82.23 56.56,81.61 57.76,82.02"/>
    </edge>
    <edge id=":9976655393_5" function="internal">
        <lane id=":9976655393_5_0" index="0" allow="pedestrian delivery bicycle" speed="5.00" length="5.95" shape="49.61,86.54 51.29,85.81 52.42,85.93 53.01,86.91 53.03,88.75"/>
    </edge>
    <edge id=":9976655393_6" function="internal">
        <lane id=":9976655393_6_0" index="0" allow="pedestrian delivery bicycle" speed="4.20" length="3.14" shape="60.35,80.22 57.76,82.02"/>
    </edge>
    <edge id=":9976655393_7" function="internal">
        <lane id=":9976655393_7_0" index="0" allow="pedestrian delivery bicycle" speed="5.56" length="11.29" shape="60.35,80.22 58.84,81.73 56.25,84.43 53.87,87.15 53.03,88.75"/>
    </edge>
    <edge id=":9976655393_8" function="internal">
        <lane id=":9976655393_8_0" index="0" allow="pedestrian delivery bicycle" speed="3.65" length="4.67" shape="60.35,80.22 58.94,80.52 58.09,80.25 57.79,79.40 58.06,77.98"/>
    </edge>
    <edge id=":9976655394_0" function="internal">
        <lane id=":9976655394_0_0" index="0" allow="pedestrian delivery bicycle" speed="5.02" length="5.02" shape="71.26,73.56 70.16,72.73 69.07,72.45 67.97,72.73 66.88,73.57"/>
    </edge>
    <edge id=":9976655394_1" function="internal">
        <lane id=":9976655394_1_0" index="0" disallow="tram rail_urban rail rail_electric rail_fast ship container cable_car subway aircraft wheelchair scooter drone" speed="15.65" length="9.43" shape="71.26,73.56 64.61,66.89"/>
        <lane id=":9976655394_1_1" index="1" disallow="tram rail_urban rail rail_electric rail_fast ship container cable_car subway aircraft wheelchair scooter drone" speed="15.65" length="9.43" shape="73.54,71.31 66.87,64.62"/>