<?xml version="1.0" encoding="UTF-8"?>

<!-- generated on 2024-09-03 01:38:44 by Eclipse SUMO netconvert Version 1.20.0
<configuration xmlns:xsi="http://www.w3.org/2001/XMLSchema-instance" xsi:noNamespaceSchemaLocation="http://sumo.dlr.de/xsd/netconvertConfiguration.xsd">

    <input>
        <osm-files value="train_files/intersection/hard/osm_files/map(58).osm"/>
    </input>

    <output>
        <output-file value="train_files/intersection/hard/outputs/map(58)_dict/map(58)/map(58).net.xml"/>
    </output>

    <projection>
        <proj.utm value="true"/>
    </projection>

    <building_defaults>
        <default.junctions.keep-clear value="false"/>
    </building_defaults>

</configuration>
-->

<net version="1.20" junctionCornerDetail="5" limitTurnSpeed="5.50" xmlns:xsi="http://www.w3.org/2001/XMLSchema-instance" xsi:noNamespaceSchemaLocation="http://sumo.dlr.de/xsd/net_file.xsd">

    <location netOffset="-452905.93,-5416264.07" convBoundary="0.00,0.00,1777.60,283.72" origBoundary="2.357438,48.897605,2.381684,48.921943" projParameter="+proj=utm +zone=31 +ellps=WGS84 +datum=WGS84 +units=m +no_defs"/>

    <type id="highway.cycleway" priority="1" numLanes="1" speed="5.56" allow="bicycle" oneway="0" width="2.00"/>
    <type id="highway.footway" priority="1" numLanes="1" speed="2.78" allow="pedestrian" oneway="1" width="2.00"/>
    <type id="highway.pedestrian" priority="1" numLanes="1" speed="2.78" allow="pedestrian" oneway="1" width="2.00"/>
    <type id="highway.primary" priority="12" numLanes="2" speed="27.78" disallow="tram rail_urban rail rail_electric rail_fast ship container cable_car subway aircraft wheelchair scooter drone" oneway="0"/>
    <type id="highway.residential" priority="3" numLanes="1" speed="13.89" disallow="tram rail_urban rail rail_electric rail_fast ship container cable_car subway aircraft wheelchair scooter drone" oneway="0"/>
    <type id="highway.secondary" priority="11" numLanes="1" speed="27.78" disallow="tram rail_urban rail rail_electric rail_fast ship container cable_car subway aircraft wheelchair scooter drone" oneway="0"/>
    <type id="highway.service" priority="1" numLanes="1" speed="5.56" allow="pedestrian delivery bicycle" oneway="0"/>
    <type id="railway.tram" priority="17" numLanes="1" speed="13.89" allow="tram" oneway="1"/>

    <edge id=":10030339785_0" function="internal">
        <lane id=":10030339785_0_0" index="0" allow="bicycle" speed="5.56" length="0.23" width="2.00" shape="1011.43,221.81 1011.43,222.03"/>
    </edge>
    <edge id=":10030339798_0" function="internal">
        <lane id=":10030339798_0_0" index="0" allow="bicycle" speed="5.56" length="4.34" width="2.00" shape="1013.71,140.79 1013.67,142.08 1013.63,142.96 1013.52,143.83 1013.32,145.10"/>
    </edge>
    <edge id=":10030339798_1" function="internal">
        <lane id=":10030339798_1_0" index="0" allow="bicycle" speed="4.18" length="3.38" width="2.00" shape="1013.71,140.79 1013.57,141.86 1013.24,142.63 1012.71,143.10 1011.98,143.26"/>
    </edge>
    <edge id=":10101884821_0" function="internal">
        <lane id=":10101884821_0_0" index="0" allow="pedestrian delivery bicycle" speed="8.33" length="0.87" shape="1018.46,92.06 1019.33,92.08"/>
    </edge>
    <edge id=":10121519320_0" function="internal">
        <lane id=":10121519320_0_0" index="0" disallow="tram rail_urban rail rail_electric rail_fast ship container cable_car subway aircraft wheelchair scooter drone" speed="8.33" length="0.30" shape="928.08,166.40 928.37,166.38"/>
    </edge>
    <edge id=":10121519321_0" function="internal">
        <lane id=":10121519321_0_0" index="0" allow="bicycle" speed="5.56" length="0.30" width="2.00" shape="937.02,176.82 937.02,176.52"/>
    </edge>
    <edge id=":10121519322_0" function="internal">
        <lane id=":10121519322_0_0" index="0" allow="bus bicycle" speed="8.33" length="0.30" shape="941.20,176.31 941.21,176.01"/>
        <lane id=":10121519322_0_1" index="1" disallow="tram rail_urban rail rail_electric rail_fast ship container cable_car subway aircraft wheelchair scooter drone" speed="8.33" length="0.30" shape="944.40,176.41 944.41,176.11"/>
        <lane id=":10121519322_0_2" index="2" disallow="tram rail_urban rail rail_electric rail_fast ship container cable_car subway aircraft wheelchair scooter drone" speed="8.33" length="0.30" shape="947.60,176.51 947.61,176.21"/>
    </edge>
    <edge id=":10121519324_0" function="internal">
        <lane id=":10121519324_0_0" index="0" allow="bicycle" speed="5.56" length="0.30" width="2.00" shape="937.08,172.92 937.08,172.63"/>
    </edge>
    <edge id=":10141424125_0" function="internal">
        <lane id=":10141424125_0_0" index="0" disallow="tram rail_urban rail rail_electric rail_fast ship container cable_car subway aircraft wheelchair scooter drone" speed="13.89" length="0.10" shape="924.25,129.37 924.25,129.37"/>
        <lane id=":10141424125_0_1" index="1" disallow="tram rail_urban rail rail_electric rail_fast ship container cable_car subway aircraft wheelchair scooter drone" speed="13.89" length="0.10" shape="924.25,126.17 924.25,126.17"/>
    </edge>
    <edge id=":10141424125_2" function="internal">
        <lane id=":10141424125_2_0" index="0" disallow="tram rail_urban rail rail_electric rail_fast ship container cable_car subway aircraft wheelchair scooter drone" speed="13.89" length="0.10" shape="924.23,119.77 924.23,119.77"/>
        <lane id=":10141424125_2_1" index="1" disallow="tram rail_urban rail rail_electric rail_fast ship container cable_car subway aircraft wheelchair scooter drone" speed="13.89" length="0.10" shape="924.24,122.97 924.24,122.97"/>
    </edge>
    <edge id=":10141424149_0" function="internal">
        <lane id=":10141424149_0_0" index="0" allow="bicycle" speed="5.56" length="0.10" width="2.00" shape="936.64,150.40 936.64,150.40"/>
    </edge>
    <edge id=":10141424150_0" function="internal">
        <lane id=":10141424150_0_0" index="0" allow="bus bicycle" speed="8.33" length="0.30" shape="941.79,150.42 941.80,150.12"/>
        <lane id=":10141424150_0_1" index="1" disallow="tram rail_urban rail rail_electric rail_fast ship container cable_car subway aircraft wheelchair scooter drone" speed="8.33" length="0.30" shape="944.99,150.50 945.00,150.20"/>
        <lane id=":10141424150_0_2" index="2" disallow="tram rail_urban rail rail_electric rail_fast ship container cable_car subway aircraft wheelchair scooter drone" speed="8.33" length="0.30" shape="948.19,150.59 948.19,150.28"/>
    </edge>
    <edge id=":1245546489_0" function="internal">
        <lane id=":1245546489_0_0" index="0" allow="bus bicycle" speed="7.63" length="6.61" shape="997.76,108.98 997.88,110.75 998.35,112.32 999.16,113.67 1000.31,114.81"/>
        <lane id=":1245546489_0_1" index="1" disallow="tram rail_urban rail rail_electric rail_fast ship container cable_car subway aircraft wheelchair scooter drone" speed="9.10" length="9.61" shape="994.56,108.89 994.74,111.43 995.43,113.69 996.63,115.66 998.34,117.33"/>
    </edge>
    <edge id=":1245546489_2" function="internal">
        <lane id=":1245546489_2_0" index="0" disallow="tram rail_urban rail rail_electric rail_fast ship container cable_car subway aircraft wheelchair scooter drone" speed="12.06" length="7.97" shape="990.88,112.25 993.87,112.24 995.98,112.42 997.90,113.15 1000.31,114.81"/>
        <lane id=":1245546489_2_1" index="1" disallow="tram rail_urban rail rail_electric rail_fast ship container cable_car subway aircraft wheelchair scooter drone" speed="10.77" length="7.97" shape="990.86,115.45 993.22,115.42 994.90,115.51 996.43,116.04 998.34,117.33"/>
        <lane id=":1245546489_2_2" index="2" disallow="tram rail_urban rail rail_electric rail_fast ship container cable_car subway aircraft wheelchair scooter drone" speed="9.30" length="7.97" shape="990.83,118.65 992.58,118.60 993.83,118.61 994.96,118.93 996.37,119.85"/>
    </edge>
    <edge id=":1886061102_0" function="internal">
        <lane id=":1886061102_0_0" index="0" disallow="tram rail_urban rail rail_electric rail_fast ship container cable_car subway aircraft wheelchair scooter drone" speed="13.89" length="17.29" shape="954.75,132.50 950.27,129.94 947.21,127.92 943.99,126.60 939.03,126.13"/>
    </edge>
    <edge id=":1886061102_1" function="internal">
        <lane id=":1886061102_1_0" index="0" disallow="tram rail_urban rail rail_electric rail_fast ship container cable_car subway aircraft wheelchair scooter drone" speed="7.44" length="6.71" shape="956.15,129.63 952.15,126.94 951.27,125.27"/>
        <lane id=":1886061102_1_1" index="1" disallow="tram rail_urban rail rail_electric rail_fast ship container cable_car subway aircraft wheelchair scooter drone" speed="5.74" length="4.83" shape="957.56,126.75 955.31,125.25 954.45,123.60 954.53,123.34"/>
    </edge>
    <edge id=":1886061102_12" function="internal">
        <lane id=":1886061102_12_0" index="0" disallow="tram rail_urban rail rail_electric rail_fast ship container cable_car subway aircraft wheelchair scooter drone" speed="7.44" length="9.60" shape="951.27,125.27 950.60,124.00 951.52,120.80 954.89,117.33"/>
    </edge>
    <edge id=":1886061102_13" function="internal">
        <lane id=":1886061102_13_0" index="0" disallow="tram rail_urban rail rail_electric rail_fast ship container cable_car subway aircraft wheelchair scooter drone" speed="5.74" length="4.32" shape="954.53,123.34 954.97,121.80 956.86,119.85"/>
    </edge>
    <edge id=":1886061102_3" function="internal">
        <lane id=":1886061102_3_0" index="0" disallow="tram rail_urban rail rail_electric rail_fast ship container cable_car subway aircraft wheelchair scooter drone" speed="13.89" length="17.51" shape="938.63,119.73 943.21,119.61 946.38,119.01 949.24,117.54 952.92,114.81"/>
        <lane id=":1886061102_3_1" index="1" disallow="tram rail_urban rail rail_electric rail_fast ship container cable_car subway aircraft wheelchair scooter drone" speed="13.89" length="17.51" shape="938.63,122.93 943.85,122.80 947.45,122.11 950.70,120.44 954.89,117.33"/>
        <lane id=":1886061102_3_2" index="2" disallow="tram rail_urban rail rail_electric rail_fast ship container cable_car subway aircraft wheelchair scooter drone" speed="13.89" length="17.51" shape="938.63,122.93 944.36,123.25 948.48,123.52 952.24,122.73 956.86,119.85"/>
    </edge>
    <edge id=":1886061102_6" function="internal">
        <lane id=":1886061102_6_0" index="0" disallow="tram rail_urban rail rail_electric rail_fast ship container cable_car subway aircraft wheelchair scooter drone" speed="3.66" length="1.45" shape="938.63,122.93 939.93,123.59"/>
    </edge>
    <edge id=":1886061102_14" function="internal">
        <lane id=":1886061102_14_0" index="0" disallow="tram rail_urban rail rail_electric rail_fast ship container cable_car subway aircraft wheelchair scooter drone" speed="3.66" length="3.26" shape="939.93,123.59 940.43,124.34 940.13,125.19 939.03,126.13"/>
    </edge>
    <edge id=":1886061102_7" function="internal">
        <lane id=":1886061102_7_0" index="0" allow="bus bicycle" speed="6.13" length="8.07" shape="942.17,135.88 942.04,133.01 941.48,130.97 940.48,129.74 939.04,129.33"/>
    </edge>
    <edge id=":1886061102_8" function="internal">
        <lane id=":1886061102_8_0" index="0" allow="bus bicycle" speed="11.11" length="24.45" shape="942.17,135.88 942.98,129.70 945.04,124.14 948.35,119.17 952.92,114.81"/>
    </edge>
    <edge id=":1886061102_9" function="internal">
        <lane id=":1886061102_9_0" index="0" disallow="tram rail_urban rail rail_electric rail_fast ship container cable_car subway aircraft wheelchair scooter drone" speed="7.68" length="13.27" shape="945.37,135.97 945.07,131.66 943.92,128.59 941.91,126.74 939.03,126.13"/>
    </edge>
    <edge id=":1886061102_10" function="internal">
        <lane id=":1886061102_10_0" index="0" disallow="tram rail_urban rail rail_electric rail_fast ship container cable_car subway aircraft wheelchair scooter drone" speed="11.11" length="21.63" shape="945.37,135.97 946.08,130.51 947.91,125.59 950.84,121.19 954.89,117.33"/>
        <lane id=":1886061102_10_1" index="1" disallow="tram rail_urban rail rail_electric rail_fast ship container cable_car subway aircraft wheelchair scooter drone" speed="11.11" length="18.82" shape="948.57,136.06 949.19,131.32 950.78,127.04 953.34,123.21 956.86,119.85"/>
    </edge>
    <edge id=":2078461848_0" function="internal">
        <lane id=":2078461848_0_0" index="0" allow="bicycle" speed="5.56" length="12.31" width="2.00" shape="951.51,142.43 939.20,142.35"/>
    </edge>
    <edge id=":2078461848_1" function="internal">
        <lane id=":2078461848_1_0" index="0" allow="bicycle" speed="5.99" length="7.94" width="2.00" shape="951.51,142.43 948.49,142.21 946.34,141.70 945.06,140.88 944.66,139.76"/>
        <lane id=":2078461848_1_1" index="1" allow="bicycle" speed="4.88" length="5.05" width="2.00" shape="951.51,142.43 949.89,142.24 948.74,141.75 948.06,140.95 947.86,139.85"/>
    </edge>
    <edge id=":2078461848_3" function="internal">
        <lane id=":2078461848_3_0" index="0" allow="bus bicycle" speed="8.33" length="4.63" shape="941.94,144.32 942.06,139.69"/>
    </edge>
    <edge id=":2078461848_4" function="internal">
        <lane id=":2078461848_4_0" index="0" allow="bicycle" speed="5.48" length="0.45" width="2.00" shape="944.54,144.39 944.39,143.97"/>
    </edge>
    <edge id=":2078461848_5" function="internal">
        <lane id=":2078461848_5_0" index="0" disallow="tram rail_urban rail rail_electric rail_fast ship container cable_car subway aircraft wheelchair scooter drone" speed="8.33" length="4.62" shape="945.14,144.40 945.26,139.78"/>
        <lane id=":2078461848_5_1" index="1" disallow="tram rail_urban rail rail_electric rail_fast ship container cable_car subway aircraft wheelchair scooter drone" speed="8.33" length="4.62" shape="948.34,144.48 948.46,139.87"/>
    </edge>
    <edge id=":2078461848_7" function="internal">
        <lane id=":2078461848_7_0" index="0" allow="bicycle" speed="5.48" length="5.75" width="2.00" shape="944.39,143.97 944.22,143.50 943.23,142.87 941.55,142.48 939.20,142.35"/>
    </edge>
    <edge id=":2078461853_0" function="internal">
        <lane id=":2078461853_0_0" index="0" allow="bicycle" speed="3.88" length="2.84" width="2.00" shape="1011.78,143.26 1011.11,143.39 1010.62,143.77 1010.32,144.38 1010.20,145.23"/>
    </edge>
    <edge id=":2078461853_1" function="internal">
        <lane id=":2078461853_1_0" index="0" allow="bicycle" speed="5.56" length="11.66" width="2.00" shape="1011.78,143.26 1000.11,143.39"/>
    </edge>
    <edge id=":2078461853_2" function="internal">
        <lane id=":2078461853_2_0" index="0" allow="bus bicycle" speed="8.33" length="4.50" shape="1009.72,140.73 1009.60,145.22"/>
        <lane id=":2078461853_2_1" index="1" disallow="tram rail_urban rail rail_electric rail_fast ship container cable_car subway aircraft wheelchair scooter drone" speed="8.33" length="4.50" shape="1006.52,140.64 1006.40,145.14"/>
        <lane id=":2078461853_2_2" index="2" disallow="tram rail_urban rail rail_electric rail_fast ship container cable_car subway aircraft wheelchair scooter drone" speed="8.33" length="4.50" shape="1003.32,140.56 1003.20,145.06"/>
    </edge>
    <edge id=":2078461853_5" function="internal">
        <lane id=":2078461853_5_0" index="0" allow="bicycle" speed="4.83" length="4.37" width="2.00" shape="1002.72,140.54 1002.53,141.78 1002.03,142.67 1001.23,143.20 1000.11,143.39"/>
    </edge>
    <edge id=":2078461857_0" function="internal">
        <lane id=":2078461857_0_0" index="0" allow="bicycle" speed="5.56" length="6.89" width="2.00" shape="1022.73,132.50 1020.68,132.41 1019.24,132.37 1017.87,132.63 1016.02,133.42"/>
    </edge>
    <edge id=":2078461857_1" function="internal">
        <lane id=":2078461857_1_0" index="0" allow="bicycle" speed="4.99" length="5.41" width="2.00" shape="1022.73,132.50 1020.78,132.35 1019.40,131.93 1018.60,131.25 1018.36,130.31"/>
    </edge>
    <edge id=":2078461857_2" function="internal">
        <lane id=":2078461857_2_0" index="0" allow="bicycle" speed="5.56" length="5.31" width="2.00" shape="1020.33,130.45 1019.74,131.27 1018.48,132.14 1017.06,132.90 1016.02,133.42"/>
    </edge>
    <edge id=":2078461857_3" function="internal">
        <lane id=":2078461857_3_0" index="0" allow="bicycle" speed="2.89" length="2.88" width="2.00" shape="1020.33,130.45 1019.79,131.15 1019.28,131.36 1018.80,131.08 1018.36,130.31"/>
    </edge>
    <edge id=":2078486284_0" function="internal">
        <lane id=":2078486284_0_0" index="0" allow="bus bicycle" speed="8.33" length="4.07" shape="956.39,101.93 956.49,97.86"/>
        <lane id=":2078486284_0_1" index="1" disallow="tram rail_urban rail rail_electric rail_fast ship container cable_car subway aircraft wheelchair scooter drone" speed="8.33" length="4.07" shape="959.59,102.01 959.69,97.94"/>
    </edge>
    <edge id=":209141276_0" function="internal">
        <lane id=":209141276_0_0" index="0" disallow="tram rail_urban rail rail_electric rail_fast ship container cable_car subway aircraft wheelchair scooter drone" speed="3.65" length="4.67" shape="1222.86,124.77 1224.05,125.59 1224.44,126.39 1224.03,127.19 1222.81,127.97"/>
    </edge>
    <edge id=":209148462_0" function="internal">
        <lane id=":209148462_0_0" index="0" disallow="tram rail_urban rail rail_electric rail_fast ship container cable_car subway aircraft wheelchair scooter drone" speed="3.65" length="4.67" shape="504.38,118.05 503.19,117.23 502.81,116.42 503.23,115.63 504.44,114.85"/>
    </edge>
    <edge id=":2294650372_0" function="internal">
        <lane id=":2294650372_0_0" index="0" allow="bus bicycle" speed="6.00" length="7.38" shape="937.84,165.97 939.40,165.63 940.54,164.61 941.24,162.90 941.53,160.51"/>
        <lane id=":2294650372_0_1" index="1" disallow="tram rail_urban rail rail_electric rail_fast ship container cable_car subway aircraft wheelchair scooter drone" speed="6.83" length="9.87" shape="937.84,165.97 940.80,165.64 942.94,164.64 944.24,162.95 944.73,160.60"/>
    </edge>
    <edge id=":2294650372_2" function="internal">
        <lane id=":2294650372_2_0" index="0" allow="bus bicycle" speed="8.33" length="10.94" shape="941.33,171.50 941.53,160.51"/>
        <lane id=":2294650372_2_1" index="1" disallow="tram rail_urban rail rail_electric rail_fast ship container cable_car subway aircraft wheelchair scooter drone" speed="8.33" length="10.94" shape="944.52,171.53 944.73,160.60"/>
        <lane id=":2294650372_2_2" index="2" disallow="tram rail_urban rail rail_electric rail_fast ship container cable_car subway aircraft wheelchair scooter drone" speed="8.33" length="10.94" shape="947.72,171.57 947.92,160.68"/>
    </edge>
    <edge id=":2354781613_0" function="internal">
        <lane id=":2354781613_0_0" index="0" allow="bicycle" speed="5.56" length="0.86" width="2.00" shape="920.38,98.11 921.08,98.62"/>
    </edge>
    <edge id=":2354781613_1" function="internal">
        <lane id=":2354781613_1_0" index="0" allow="bicycle" speed="5.56" length="0.35" width="2.00" shape="921.11,96.62 921.33,96.35"/>
    </edge>
    <edge id=":2354781624_0" function="internal">
        <lane id=":2354781624_0_0" index="0" allow="bicycle" speed="2.89" length="2.92" width="2.00" shape="779.59,97.74 778.85,97.24 778.60,96.74 778.85,96.24 779.60,95.74"/>
    </edge>
    <edge id=":2537097418_0" function="internal">
        <lane id=":2537097418_0_0" index="0" allow="tram" speed="13.89" length="4.61" shape="920.09,104.86 921.28,104.18 922.10,103.71 922.86,103.17 923.90,102.29"/>
    </edge>
    <edge id=":2537097420_0" function="internal">
        <lane id=":2537097420_0_0" index="0" allow="tram" speed="13.89" length="4.83" shape="927.11,104.62 926.03,105.56 925.24,106.13 924.39,106.63 923.14,107.34"/>
    </edge>
    <edge id=":2537097423_0" function="internal">
        <lane id=":2537097423_0_0" index="0" allow="bicycle" speed="5.56" length="8.10" width="2.00" shape="962.62,105.78 954.51,105.62"/>
    </edge>
    <edge id=":2537097423_1" function="internal">
        <lane id=":2537097423_1_0" index="0" allow="bicycle" speed="5.21" length="5.82" width="2.00" shape="962.62,105.78 961.00,105.53 959.85,104.85 959.18,103.73 958.99,102.19"/>
    </edge>
    <edge id=":2537097423_2" function="internal">
        <lane id=":2537097423_2_0" index="0" allow="bicycle" speed="2.89" length="2.92" width="2.00" shape="962.62,105.78 961.88,105.26 961.64,104.76 961.89,104.26 962.65,103.78"/>
    </edge>
    <edge id=":2537097423_3" function="internal">
        <lane id=":2537097423_3_0" index="0" allow="bicycle" speed="3.48" length="2.21" width="2.00" shape="954.55,103.62 955.08,103.54 955.46,103.26 955.70,102.78 955.79,102.11"/>
    </edge>
    <edge id=":2537097423_4" function="internal">
        <lane id=":2537097423_4_0" index="0" allow="bicycle" speed="5.56" length="8.10" width="2.00" shape="954.55,103.62 962.65,103.78"/>
    </edge>
    <edge id=":2537097423_5" function="internal">
        <lane id=":2537097423_5_0" index="0" allow="bicycle" speed="2.89" length="2.92" width="2.00" shape="954.55,103.62 955.29,104.14 955.53,104.64 955.27,105.14 954.51,105.62"/>
    </edge>
    <edge id=":2537097423_6" function="internal">
        <lane id=":2537097423_6_0" index="0" allow="bus bicycle" speed="8.33" length="6.04" shape="956.27,108.17 956.39,102.13"/>
    </edge>
    <edge id=":2537097423_7" function="internal">
        <lane id=":2537097423_7_0" index="0" allow="bicycle" speed="5.33" length="0.49" width="2.00" shape="958.87,108.17 958.75,107.69"/>
    </edge>
    <edge id=":2537097423_8" function="internal">
        <lane id=":2537097423_8_0" index="0" disallow="tram rail_urban rail rail_electric rail_fast ship container cable_car subway aircraft wheelchair scooter drone" speed="8.33" length="5.96" shape="959.47,108.16 959.59,102.21"/>
    </edge>
    <edge id=":2537097423_9" function="internal">
        <lane id=":2537097423_9_0" index="0" allow="bicycle" speed="5.29" length="5.72" width="2.00" shape="960.07,108.16 960.22,106.22 960.70,104.85 961.51,104.03 962.65,103.78"/>
    </edge>
    <edge id=":2537097423_10" function="internal">
        <lane id=":2537097423_10_0" index="0" allow="bicycle" speed="5.33" length="5.11" width="2.00" shape="958.75,107.69 958.59,107.08 957.77,106.30 956.41,105.81 954.51,105.62"/>
    </edge>
    <edge id=":2537097424_0" function="internal">
        <lane id=":2537097424_0_0" index="0" allow="bicycle" speed="4.36" length="3.89" width="2.00" shape="1000.94,106.55 999.84,106.66 999.04,107.08 998.55,107.79 998.37,108.80"/>
    </edge>
    <edge id=":2537097424_1" function="internal">
        <lane id=":2537097424_1_0" index="0" allow="bicycle" speed="5.56" length="9.41" width="2.00" shape="1000.94,106.55 991.53,106.32"/>
    </edge>
    <edge id=":2537097424_2" function="internal">
        <lane id=":2537097424_2_0" index="0" allow="bicycle" speed="2.89" length="2.92" width="2.00" shape="1000.94,106.55 1000.20,106.03 999.97,105.52 1000.23,105.03 1001.00,104.56"/>
    </edge>
    <edge id=":2537097424_3" function="internal">
        <lane id=":2537097424_3_0" index="0" allow="bus bicycle" speed="8.33" length="5.78" shape="997.93,103.00 997.77,108.78"/>
    </edge>
    <edge id=":2537097424_4" function="internal">
        <lane id=":2537097424_4_0" index="0" allow="bicycle" speed="5.52" length="2.43" width="2.00" shape="995.33,102.92 995.67,103.57 996.73,104.06 997.25,104.15"/>
    </edge>
    <edge id=":2537097424_5" function="internal">
        <lane id=":2537097424_5_0" index="0" disallow="tram rail_urban rail rail_electric rail_fast ship container cable_car subway aircraft wheelchair scooter drone" speed="8.33" length="5.79" shape="994.73,102.91 994.57,108.69"/>
    </edge>
    <edge id=":2537097424_6" function="internal">
        <lane id=":2537097424_6_0" index="0" allow="bicycle" speed="5.00" length="4.86" width="2.00" shape="994.13,102.89 993.93,104.41 993.43,105.48 992.63,106.12 991.53,106.32"/>
    </edge>
    <edge id=":2537097424_10" function="internal">
        <lane id=":2537097424_10_0" index="0" allow="bicycle" speed="5.52" length="3.78" width="2.00" shape="997.25,104.15 998.51,104.39 1001.00,104.56"/>
    </edge>
    <edge id=":2537097424_7" function="internal">
        <lane id=":2537097424_7_0" index="0" allow="bicycle" speed="5.56" length="9.44" width="2.00" shape="991.56,104.32 1001.00,104.56"/>
    </edge>
    <edge id=":2537097424_8" function="internal">
        <lane id=":2537097424_8_0" index="0" allow="bicycle" speed="5.46" length="6.48" width="2.00" shape="991.56,104.32 993.19,104.62 994.33,105.45 994.99,106.81 995.17,108.71"/>
    </edge>
    <edge id=":2537097424_9" function="internal">
        <lane id=":2537097424_9_0" index="0" allow="bicycle" speed="2.89" length="2.92" width="2.00" shape="991.56,104.32 992.30,104.83 992.54,105.34 992.29,105.83 991.53,106.32"/>
    </edge>
    <edge id=":267572970_0" function="internal">
        <lane id=":267572970_0_0" index="0" allow="bus bicycle" speed="8.19" length="7.44" shape="953.06,114.70 954.47,113.35 955.48,111.83 956.08,110.14 956.27,108.28"/>
        <lane id=":267572970_0_1" index="1" disallow="tram rail_urban rail rail_electric rail_fast ship container cable_car subway aircraft wheelchair scooter drone" speed="9.05" length="9.19" shape="953.06,114.70 955.87,112.42 957.87,110.59 959.07,109.20 959.47,108.26"/>
    </edge>
    <edge id=":267572970_2" function="internal">
        <lane id=":267572970_2_0" index="0" disallow="tram rail_urban rail rail_electric rail_fast ship container cable_car subway aircraft wheelchair scooter drone" speed="12.08" length="8.53" shape="953.06,114.70 955.61,112.90 957.63,112.05 959.86,111.81 963.03,111.85"/>
        <lane id=":267572970_2_1" index="1" disallow="tram rail_urban rail rail_electric rail_fast ship container cable_car subway aircraft wheelchair scooter drone" speed="10.82" length="8.53" shape="955.03,117.22 957.06,115.81 958.68,115.16 960.45,115.01 962.98,115.05"/>
        <lane id=":267572970_2_2" index="2" disallow="tram rail_urban rail rail_electric rail_fast ship container cable_car subway aircraft wheelchair scooter drone" speed="9.38" length="8.53" shape="957.00,119.75 958.51,118.71 959.72,118.27 961.05,118.20 962.93,118.25"/>
    </edge>
    <edge id=":2721077056_0" function="internal">
        <lane id=":2721077056_0_0" index="0" allow="bicycle" speed="5.56" length="4.09" width="2.00" shape="926.93,102.14 923.51,99.91"/>
    </edge>
    <edge id=":2721077056_1" function="internal">
        <lane id=":2721077056_1_0" index="0" allow="bicycle" speed="2.89" length="2.92" width="2.00" shape="926.93,102.14 926.61,101.30 926.70,100.75 927.20,100.49 928.10,100.52"/>
    </edge>
    <edge id=":2721077056_2" function="internal">
        <lane id=":2721077056_2_0" index="0" allow="bicycle" speed="5.56" length="4.24" width="2.00" shape="924.55,98.20 928.10,100.52"/>
    </edge>
    <edge id=":2721077056_3" function="internal">
        <lane id=":2721077056_3_0" index="0" allow="bicycle" speed="2.89" length="2.92" width="2.00" shape="924.55,98.20 924.93,99.02 924.88,99.57 924.41,99.87 923.51,99.91"/>
    </edge>
    <edge id=":2721077056_4" function="internal">
        <lane id=":2721077056_4_0" index="0" allow="tram" speed="13.89" length="6.40" shape="924.05,102.16 925.46,100.89 926.38,99.97 927.25,99.00 928.48,97.56"/>
    </edge>
    <edge id=":2721077062_0" function="internal">
        <lane id=":2721077062_0_0" index="0" allow="bicycle" speed="5.56" length="5.35" width="2.00" shape="931.54,105.24 927.09,102.26"/>
    </edge>
    <edge id=":2721077062_1" function="internal">
        <lane id=":2721077062_1_0" index="0" allow="bicycle" speed="3.06" length="2.79" width="2.00" shape="931.54,105.24 931.00,104.57 930.92,104.04 931.30,103.66 932.12,103.42"/>
    </edge>
    <edge id=":2721077062_2" function="internal">
        <lane id=":2721077062_2_0" index="0" allow="tram" speed="13.89" length="6.64" shape="931.80,99.67 930.59,101.22 929.70,102.23 928.72,103.17 927.26,104.49"/>
    </edge>
    <edge id=":2721077062_3" function="internal">
        <lane id=":2721077062_3_0" index="0" allow="bicycle" speed="5.56" length="4.95" width="2.00" shape="928.26,100.64 929.35,101.65 930.02,102.53 930.79,103.16 932.12,103.42"/>
    </edge>
    <edge id=":2721077062_4" function="internal">
        <lane id=":2721077062_4_0" index="0" allow="bicycle" speed="2.89" length="2.92" width="2.00" shape="928.26,100.64 928.58,101.48 928.49,102.03 928.00,102.29 927.09,102.26"/>
    </edge>
    <edge id=":2721077063_0" function="internal">
        <lane id=":2721077063_0_0" index="0" allow="bicycle" speed="5.56" length="3.92" width="2.00" shape="948.29,105.65 944.38,105.66"/>
    </edge>
    <edge id=":2721077063_1" function="internal">
        <lane id=":2721077063_1_0" index="0" allow="bicycle" speed="2.89" length="2.92" width="2.00" shape="948.29,105.65 947.53,105.17 947.27,104.67 947.51,104.17 948.25,103.65"/>
    </edge>
    <edge id=":2721077063_2" function="internal">
        <lane id=":2721077063_2_0" index="0" allow="bicycle" speed="5.56" length="3.83" width="2.00" shape="944.42,103.66 948.25,103.65"/>
    </edge>
    <edge id=":2721077063_3" function="internal">
        <lane id=":2721077063_3_0" index="0" allow="bicycle" speed="2.89" length="2.92" width="2.00" shape="944.42,103.66 945.16,104.18 945.40,104.68 945.14,105.18 944.38,105.66"/>
    </edge>
    <edge id=":2721077063_4" function="internal">
        <lane id=":2721077063_4_0" index="0" allow="bicycle" speed="4.02" length="5.59" width="2.00" shape="945.93,108.12 947.23,107.08 947.41,106.33 946.46,105.86 944.38,105.66"/>
    </edge>
    <edge id=":2721077063_5" function="internal">
        <lane id=":2721077063_5_0" index="0" allow="bicycle" speed="5.56" length="5.04" width="2.00" shape="945.93,108.12 948.25,103.65"/>
    </edge>