<?xml version="1.0" encoding="UTF-8"?>

<!-- generated on 2024-09-03 01:37:48 by Eclipse SUMO netconvert Version 1.20.0
<configuration xmlns:xsi="http://www.w3.org/2001/XMLSchema-instance" xsi:noNamespaceSchemaLocation="http://sumo.dlr.de/xsd/netconvertConfiguration.xsd">

    <input>
        <osm-files value="train_files/roundabout/middle/osm_files/map(2).osm"/>
    </input>

    <output>
        <output-file value="train_files/roundabout/middle/outputs/map(2)_dict/map(2)/map(2).net.xml"/>
    </output>

    <projection>
        <proj.utm value="true"/>
    </projection>

    <building_defaults>
        <default.junctions.keep-clear value="false"/>
    </building_defaults>

</configuration>
-->

<net version="1.20" junctionCornerDetail="5" limitTurnSpeed="5.50" xmlns:xsi="http://www.w3.org/2001/XMLSchema-instance" xsi:noNamespaceSchemaLocation="http://sumo.dlr.de/xsd/net_file.xsd">

    <location netOffset="-447487.52,-5413539.61" convBoundary="0.00,0.00,3285.81,1764.81" origBoundary="2.283808,48.872860,2.328681,48.888581" projParameter="+proj=utm +zone=31 +ellps=WGS84 +datum=WGS84 +units=m +no_defs"/>

    <type id="highway.footway" priority="1" numLanes="1" speed="2.78" allow="pedestrian" oneway="1" width="2.00"/>
    <type id="highway.pedestrian" priority="1" numLanes="1" speed="2.78" allow="pedestrian" oneway="1" width="2.00"/>
    <type id="highway.residential" priority="3" numLanes="1" speed="13.89" disallow="tram rail_urban rail rail_electric rail_fast ship container cable_car subway aircraft wheelchair scooter drone" oneway="0"/>
    <type id="highway.secondary" priority="11" numLanes="1" speed="27.78" disallow="tram rail_urban rail rail_electric rail_fast ship container cable_car subway aircraft wheelchair scooter drone" oneway="0"/>
    <type id="highway.steps" priority="1" numLanes="1" speed="1.39" allow="pedestrian" oneway="1" width="2.00"/>
    <type id="highway.tertiary" priority="10" numLanes="1" speed="22.22" disallow="tram rail_urban rail rail_electric rail_fast ship container cable_car subway aircraft wheelchair scooter drone" oneway="0"/>
    <type id="railway.rail" priority="20" numLanes="1" speed="44.44" allow="rail" oneway="1"/>
    <type id="railway.subway" priority="18" numLanes="1" speed="27.78" allow="subway" oneway="1"/>

    <edge id=":1107432316_0" function="internal">
        <lane id=":1107432316_0_0" index="0" disallow="tram rail_urban rail rail_electric rail_fast ship container cable_car subway aircraft wheelchair scooter drone" speed="8.33" length="11.16" shape="1141.43,1336.33 1130.46,1338.36"/>
    </edge>
    <edge id=":1107432316_1" function="internal">
        <lane id=":1107432316_1_0" index="0" disallow="tram rail_urban rail rail_electric rail_fast ship container cable_car subway aircraft wheelchair scooter drone" speed="3.65" length="1.44" shape="1141.43,1336.33 1140.11,1335.75"/>
    </edge>
    <edge id=":1107432316_6" function="internal">
        <lane id=":1107432316_6_0" index="0" disallow="tram rail_urban rail rail_electric rail_fast ship container cable_car subway aircraft wheelchair scooter drone" speed="3.65" length="3.23" shape="1140.11,1335.75 1139.57,1335.04 1139.82,1334.18 1140.86,1333.18"/>
    </edge>
    <edge id=":1107432316_2" function="internal">
        <lane id=":1107432316_2_0" index="0" disallow="tram rail_urban rail rail_electric rail_fast ship container cable_car subway aircraft wheelchair scooter drone" speed="6.42" length="9.04" shape="1134.51,1328.57 1135.20,1330.96 1136.49,1332.53 1138.38,1333.27 1140.86,1333.18"/>
    </edge>
    <edge id=":1107432316_3" function="internal">
        <lane id=":1107432316_3_0" index="0" disallow="tram rail_urban rail rail_electric rail_fast ship container cable_car subway aircraft wheelchair scooter drone" speed="7.47" length="11.76" shape="1134.51,1328.57 1134.71,1332.48 1134.10,1335.41 1132.69,1337.37 1130.46,1338.36"/>
    </edge>
    <edge id=":1107432316_4" function="internal">
        <lane id=":1107432316_4_0" index="0" disallow="tram rail_urban rail rail_electric rail_fast ship container cable_car subway aircraft wheelchair scooter drone" speed="8.33" length="11.19" shape="1129.86,1335.21 1140.86,1333.18"/>
    </edge>
    <edge id=":1107432316_5" function="internal">
        <lane id=":1107432316_5_0" index="0" disallow="tram rail_urban rail rail_electric rail_fast ship container cable_car subway aircraft wheelchair scooter drone" speed="3.65" length="1.44" shape="1129.86,1335.21 1131.19,1335.77"/>
    </edge>
    <edge id=":1107432316_7" function="internal">
        <lane id=":1107432316_7_0" index="0" disallow="tram rail_urban rail rail_electric rail_fast ship container cable_car subway aircraft wheelchair scooter drone" speed="3.65" length="3.23" shape="1131.19,1335.77 1131.73,1336.49 1131.49,1337.35 1130.46,1338.36"/>
    </edge>
    <edge id=":1107432319_0" function="internal">
        <lane id=":1107432319_0_0" index="0" disallow="tram rail_urban rail rail_electric rail_fast ship container cable_car subway aircraft wheelchair scooter drone" speed="4.31" length="5.82" shape="1135.28,1303.42 1137.06,1302.64 1138.02,1302.74 1138.17,1303.69 1137.49,1305.51"/>
    </edge>
    <edge id=":11607170219_0" function="internal">
        <lane id=":11607170219_0_0" index="0" allow="subway" speed="27.78" length="3.03" shape="1069.76,1348.72 1066.78,1349.27"/>
    </edge>
    <edge id=":1369651261_0" function="internal">
        <lane id=":1369651261_0_0" index="0" disallow="tram rail_urban rail rail_electric rail_fast ship container cable_car subway aircraft wheelchair scooter drone" speed="8.33" length="0.31" shape="1120.40,1178.28 1120.23,1178.54"/>
    </edge>
    <edge id=":1369651261_1" function="internal">
        <lane id=":1369651261_1_0" index="0" disallow="tram rail_urban rail rail_electric rail_fast ship container cable_car subway aircraft wheelchair scooter drone" speed="8.33" length="0.26" shape="1117.58,1176.75 1117.72,1176.54"/>
    </edge>
    <edge id=":1369651266_0" function="internal">
        <lane id=":1369651266_0_0" index="0" disallow="tram rail_urban rail rail_electric rail_fast ship container cable_car subway aircraft wheelchair scooter drone" speed="8.33" length="0.13" shape="1112.97,1188.59 1112.89,1188.70"/>
    </edge>
    <edge id=":1369651266_1" function="internal">
        <lane id=":1369651266_1_0" index="0" disallow="tram rail_urban rail rail_electric rail_fast ship container cable_car subway aircraft wheelchair scooter drone" speed="8.33" length="0.38" shape="1110.20,1186.96 1110.43,1186.65"/>
    </edge>
    <edge id=":1369651401_0" function="internal">
        <lane id=":1369651401_0_0" index="0" disallow="tram rail_urban rail rail_electric rail_fast ship container cable_car subway aircraft wheelchair scooter drone" speed="8.33" length="8.10" shape="944.51,1372.44 944.11,1369.89 943.88,1368.13 943.75,1366.37 943.66,1363.79"/>
        <lane id=":1369651401_0_1" index="1" disallow="tram rail_urban rail rail_electric rail_fast ship container cable_car subway aircraft wheelchair scooter drone" speed="8.33" length="8.10" shape="947.67,1371.95 947.29,1369.52 947.07,1367.85 946.95,1366.17 946.86,1363.71"/>
        <lane id=":1369651401_0_2" index="2" disallow="tram rail_urban rail rail_electric rail_fast ship container cable_car subway aircraft wheelchair scooter drone" speed="8.33" length="8.10" shape="950.83,1371.47 950.48,1369.16 950.26,1367.56 950.14,1365.97 950.06,1363.62"/>
        <lane id=":1369651401_0_3" index="3" disallow="tram rail_urban rail rail_electric rail_fast ship container cable_car subway aircraft wheelchair scooter drone" speed="8.33" length="8.10" shape="954.00,1370.99 953.66,1368.79 953.45,1367.28 953.34,1365.76 953.26,1363.54"/>
    </edge>
    <edge id=":1369651401_4" function="internal">
        <lane id=":1369651401_4_0" index="0" disallow="tram rail_urban rail rail_electric rail_fast ship container cable_car subway aircraft wheelchair scooter drone" speed="6.90" length="8.22" shape="939.21,1369.90 941.20,1369.01 942.61,1367.70 943.43,1365.96 943.66,1363.79"/>
        <lane id=":1369651401_4_1" index="1" disallow="tram rail_urban rail rail_electric rail_fast ship container cable_car subway aircraft wheelchair scooter drone" speed="7.72" length="10.50" shape="939.21,1369.90 942.59,1368.66 945.00,1367.21 946.42,1365.56 946.86,1363.71"/>
    </edge>
    <edge id=":1369651515_0" function="internal">
        <lane id=":1369651515_0_0" index="0" disallow="tram rail_urban rail rail_electric rail_fast ship container cable_car subway aircraft wheelchair scooter drone" speed="8.33" length="9.63" shape="1018.98,1414.01 1017.13,1412.98 1014.97,1412.46 1012.50,1412.46 1009.73,1412.98"/>
        <lane id=":1369651515_0_1" index="1" disallow="tram rail_urban rail rail_electric rail_fast ship container cable_car subway aircraft wheelchair scooter drone" speed="8.33" length="11.18" shape="1018.98,1414.01 1015.87,1411.86 1013.15,1410.46 1010.83,1409.80 1008.91,1409.88"/>
    </edge>
    <edge id=":1369651515_2" function="internal">
        <lane id=":1369651515_2_0" index="0" disallow="tram rail_urban rail rail_electric rail_fast ship container cable_car subway aircraft wheelchair scooter drone" speed="8.33" length="10.00" shape="1019.54,1409.15 1016.75,1410.59 1014.79,1411.47 1012.75,1412.15 1009.73,1412.98"/>
        <lane id=":1369651515_2_1" index="1" disallow="tram rail_urban rail rail_electric rail_fast ship container cable_car subway aircraft wheelchair scooter drone" speed="8.33" length="10.00" shape="1018.35,1406.16 1015.67,1407.55 1013.78,1408.41 1011.82,1409.08 1008.91,1409.88"/>
        <lane id=":1369651515_2_2" index="2" disallow="tram rail_urban rail rail_electric rail_fast ship container cable_car subway aircraft wheelchair scooter drone" speed="8.33" length="10.00" shape="1017.17,1403.17 1014.59,1404.51 1012.78,1405.36 1010.89,1406.01 1008.09,1406.79"/>
        <lane id=":1369651515_2_3" index="3" disallow="tram rail_urban rail rail_electric rail_fast ship container cable_car subway aircraft wheelchair scooter drone" speed="8.33" length="10.00" shape="1015.99,1400.18 1013.51,1401.47 1011.77,1402.30 1009.96,1402.94 1007.27,1403.70"/>
    </edge>
    <edge id=":1369651540_0" function="internal">
        <lane id=":1369651540_0_0" index="0" disallow="tram rail_urban rail rail_electric rail_fast ship container cable_car subway aircraft wheelchair scooter drone" speed="8.33" length="6.21" shape="1099.23,1426.86 1104.17,1430.61"/>
    </edge>
    <edge id=":1369651732_0" function="internal">
        <lane id=":1369651732_0_0" index="0" disallow="tram rail_urban rail rail_electric rail_fast ship container cable_car subway aircraft wheelchair scooter drone" speed="3.65" length="4.67" shape="1033.81,1577.64 1033.64,1579.08 1033.10,1579.79 1032.21,1579.80 1030.95,1579.09"/>
    </edge>
    <edge id=":2190217320_0" function="internal">
        <lane id=":2190217320_0_0" index="0" disallow="tram rail_urban rail rail_electric rail_fast ship container cable_car subway aircraft wheelchair scooter drone" speed="8.33" length="1.47" shape="1033.84,1310.98 1033.03,1312.21"/>
    </edge>
    <edge id=":2190217320_1" function="internal">
        <lane id=":2190217320_1_0" index="0" disallow="tram rail_urban rail rail_electric rail_fast ship container cable_car subway aircraft wheelchair scooter drone" speed="8.33" length="1.47" shape="1030.35,1310.46 1031.15,1309.23"/>
    </edge>
    <edge id=":2190217322_0" function="internal">
        <lane id=":2190217322_0_0" index="0" disallow="tram rail_urban rail rail_electric rail_fast ship container cable_car subway aircraft wheelchair scooter drone" speed="8.33" length="6.52" shape="1089.66,1337.49 1089.80,1335.60 1090.20,1334.33 1090.89,1333.16 1091.94,1331.53"/>
    </edge>
    <edge id=":2190217323_0" function="internal">
        <lane id=":2190217323_0_0" index="0" disallow="tram rail_urban rail rail_electric rail_fast ship container cable_car subway aircraft wheelchair scooter drone" speed="8.33" length="0.23" shape="1028.84,1421.53 1028.66,1421.39"/>
    </edge>
    <edge id=":2190217325_0" function="internal">
        <lane id=":2190217325_0_0" index="0" disallow="tram rail_urban rail rail_electric rail_fast ship container cable_car subway aircraft wheelchair scooter drone" speed="8.33" length="0.30" shape="992.53,1435.66 992.53,1435.36"/>
    </edge>
    <edge id=":2190217325_1" function="internal">
        <lane id=":2190217325_1_0" index="0" disallow="tram rail_urban rail rail_electric rail_fast ship container cable_car subway aircraft wheelchair scooter drone" speed="8.33" length="0.20" shape="995.73,1435.42 995.73,1435.62"/>
    </edge>
    <edge id=":2190217384_0" function="internal">
        <lane id=":2190217384_0_0" index="0" disallow="tram rail_urban rail rail_electric rail_fast ship container cable_car subway aircraft wheelchair scooter drone" speed="8.33" length="0.30" shape="1300.12,1541.38 1300.39,1541.51"/>
    </edge>
    <edge id=":2190217406_0" function="internal">
        <lane id=":2190217406_0_0" index="0" disallow="tram rail_urban rail rail_electric rail_fast ship container cable_car subway aircraft wheelchair scooter drone" speed="8.33" length="0.29" shape="1290.99,1582.93 1290.72,1582.82"/>
    </edge>
    <edge id=":2415626403_0" function="internal">
        <lane id=":2415626403_0_0" index="0" disallow="tram rail_urban rail rail_electric rail_fast ship container cable_car subway aircraft wheelchair scooter drone" speed="8.33" length="0.30" shape="965.13,1420.41 964.97,1420.67"/>
        <lane id=":2415626403_0_1" index="1" disallow="tram rail_urban rail rail_electric rail_fast ship container cable_car subway aircraft wheelchair scooter drone" speed="8.33" length="0.30" shape="962.45,1418.67 962.28,1418.92"/>
    </edge>
    <edge id=":2415626403_2" function="internal">
        <lane id=":2415626403_2_0" index="0" allow="bus bicycle" speed="8.33" length="0.30" shape="959.60,1417.18 959.76,1416.93"/>
    </edge>
    <edge id=":2415626414_0" function="internal">
        <lane id=":2415626414_0_0" index="0" disallow="tram rail_urban rail rail_electric rail_fast ship container cable_car subway aircraft wheelchair scooter drone" speed="8.33" length="4.11" shape="945.52,1377.14 945.17,1375.82 944.94,1374.91 944.75,1373.99 944.54,1372.64"/>
        <lane id=":2415626414_0_1" index="1" disallow="tram rail_urban rail rail_electric rail_fast ship container cable_car subway aircraft wheelchair scooter drone" speed="8.33" length="4.11" shape="948.61,1376.33 948.29,1375.10 948.07,1374.26 947.90,1373.41 947.70,1372.15"/>
        <lane id=":2415626414_0_2" index="2" disallow="tram rail_urban rail rail_electric rail_fast ship container cable_car subway aircraft wheelchair scooter drone" speed="8.33" length="4.11" shape="951.71,1375.51 951.41,1374.38 951.21,1373.61 951.05,1372.82 950.86,1371.67"/>
        <lane id=":2415626414_0_3" index="3" disallow="tram rail_urban rail rail_electric rail_fast ship container cable_car subway aircraft wheelchair scooter drone" speed="8.33" length="4.11" shape="954.80,1374.70 954.53,1373.67 954.34,1372.96 954.20,1372.24 954.03,1371.19"/>
    </edge>
    <edge id=":2415626422_0" function="internal">
        <lane id=":2415626422_0_0" index="0" disallow="tram rail_urban rail rail_electric rail_fast ship container cable_car subway aircraft wheelchair scooter drone" speed="8.33" length="0.34" shape="981.50,1300.41 981.39,1300.09"/>
    </edge>
    <edge id=":2415626422_1" function="internal">
        <lane id=":2415626422_1_0" index="0" allow="bus bicycle" speed="8.33" length="0.24" shape="987.47,1298.09 987.54,1298.29"/>
        <lane id=":2415626422_1_1" index="1" disallow="tram rail_urban rail rail_electric rail_fast ship container cable_car subway aircraft wheelchair scooter drone" speed="8.33" length="0.24" shape="984.43,1299.09 984.52,1299.35"/>
    </edge>
    <edge id=":2722937426_0" function="internal">
        <lane id=":2722937426_0_0" index="0" disallow="tram rail_urban rail rail_electric rail_fast ship container cable_car subway aircraft wheelchair scooter drone" speed="8.33" length="0.35" shape="1508.65,1645.22 1508.54,1645.22 1508.47,1645.22 1508.40,1645.21 1508.29,1645.19"/>
    </edge>
    <edge id=":27233726_0" function="internal">
        <lane id=":27233726_0_0" index="0" disallow="tram rail_urban rail rail_electric rail_fast ship container cable_car subway aircraft wheelchair scooter drone" speed="6.98" length="8.25" shape="1044.90,1379.86 1044.42,1381.98 1044.62,1383.90 1045.51,1385.63 1047.09,1387.16"/>
    </edge>
    <edge id=":27233726_1" function="internal">
        <lane id=":27233726_1_0" index="0" disallow="tram rail_urban rail rail_electric rail_fast ship container cable_car subway aircraft wheelchair scooter drone" speed="8.33" length="9.16" shape="1044.90,1379.86 1043.94,1382.56 1043.27,1384.41 1042.43,1386.18 1040.97,1388.63"/>
        <lane id=":27233726_1_1" index="1" disallow="tram rail_urban rail rail_electric rail_fast ship container cable_car subway aircraft wheelchair scooter drone" speed="8.33" length="9.16" shape="1041.91,1378.74 1040.98,1381.35 1040.32,1383.13 1039.51,1384.84 1038.09,1387.20"/>
        <lane id=":27233726_1_2" index="2" disallow="tram rail_urban rail rail_electric rail_fast ship container cable_car subway aircraft wheelchair scooter drone" speed="8.33" length="9.16" shape="1038.91,1377.62 1038.01,1380.13 1037.37,1381.85 1036.58,1383.49 1035.21,1385.77"/>
        <lane id=":27233726_1_3" index="3" disallow="tram rail_urban rail rail_electric rail_fast ship container cable_car subway aircraft wheelchair scooter drone" speed="8.33" length="9.16" shape="1035.91,1376.50 1035.18,1378.96 1034.54,1380.61 1033.69,1382.17 1032.32,1384.34"/>
    </edge>
    <edge id=":27233732_0" function="internal">
        <lane id=":27233732_0_0" index="0" disallow="tram rail_urban rail rail_electric rail_fast ship container cable_car subway aircraft wheelchair scooter drone" speed="6.80" length="8.92" shape="1029.96,1316.93 1028.91,1319.15 1028.72,1321.22 1029.39,1323.14 1030.93,1324.92"/>
        <lane id=":27233732_0_1" index="1" disallow="tram rail_urban rail rail_electric rail_fast ship container cable_car subway aircraft wheelchair scooter drone" speed="7.92" length="11.27" shape="1029.96,1316.93 1028.23,1320.14 1027.46,1322.95 1027.67,1325.35 1028.84,1327.34"/>
    </edge>
    <edge id=":27233732_2" function="internal">
        <lane id=":27233732_2_0" index="0" disallow="tram rail_urban rail rail_electric rail_fast ship container cable_car subway aircraft wheelchair scooter drone" speed="6.51" length="8.73" shape="1019.75,1316.97 1021.95,1317.87 1023.94,1317.88 1025.71,1316.98 1027.28,1315.19"/>
    </edge>
    <edge id=":27233732_3" function="internal">
        <lane id=":27233732_3_0" index="0" disallow="tram rail_urban rail rail_electric rail_fast ship container cable_car subway aircraft wheelchair scooter drone" speed="8.33" length="12.94" shape="1019.75,1316.97 1023.26,1319.04 1025.61,1320.56 1027.83,1322.27 1030.93,1324.92"/>
        <lane id=":27233732_3_1" index="1" disallow="tram rail_urban rail rail_electric rail_fast ship container cable_car subway aircraft wheelchair scooter drone" speed="8.33" length="12.94" shape="1018.13,1319.73 1021.57,1321.64 1023.94,1322.97 1026.08,1324.58 1028.84,1327.34"/>
        <lane id=":27233732_3_2" index="2" disallow="tram rail_urban rail rail_electric rail_fast ship container cable_car subway aircraft wheelchair scooter drone" speed="8.33" length="12.94" shape="1016.51,1322.49 1019.80,1324.32 1022.06,1325.59 1024.11,1327.14 1026.74,1329.77"/>
        <lane id=":27233732_3_3" index="3" disallow="tram rail_urban rail rail_electric rail_fast ship container cable_car subway aircraft wheelchair scooter drone" speed="8.33" length="12.94" shape="1014.89,1325.27 1018.17,1326.70 1020.31,1327.95 1022.18,1329.59 1024.64,1332.20"/>
    </edge>
    <edge id=":27233754_0" function="internal">
        <lane id=":27233754_0_0" index="0" disallow="tram rail_urban rail rail_electric rail_fast ship container cable_car subway aircraft wheelchair scooter drone" speed="7.38" length="9.34" shape="977.28,1411.65 974.75,1411.21 972.53,1411.51 970.64,1412.56 969.07,1414.35"/>
        <lane id=":27233754_0_1" index="1" disallow="tram rail_urban rail rail_electric rail_fast ship container cable_car subway aircraft wheelchair scooter drone" speed="8.16" length="11.61" shape="977.28,1411.65 973.38,1410.74 970.27,1410.59 967.94,1411.21 966.39,1412.60"/>
    </edge>
    <edge id=":27233754_2" function="internal">
        <lane id=":27233754_2_0" index="0" disallow="tram rail_urban rail rail_electric rail_fast ship container cable_car subway aircraft wheelchair scooter drone" speed="8.33" length="17.24" shape="977.28,1411.65 972.35,1410.00 969.13,1408.40 966.24,1406.22 962.26,1402.82"/>
        <lane id=":27233754_2_1" index="1" disallow="tram rail_urban rail rail_electric rail_fast ship container cable_car subway aircraft wheelchair scooter drone" speed="8.33" length="17.24" shape="978.78,1408.76 973.92,1407.14 970.76,1405.57 967.90,1403.43 963.98,1400.09"/>
        <lane id=":27233754_2_2" index="2" disallow="tram rail_urban rail rail_electric rail_fast ship container cable_car subway aircraft wheelchair scooter drone" speed="8.33" length="17.24" shape="980.28,1405.87 975.50,1404.28 972.38,1402.74 969.56,1400.64 965.70,1397.36"/>
        <lane id=":27233754_2_3" index="3" disallow="tram rail_urban rail rail_electric rail_fast ship container cable_car subway aircraft wheelchair scooter drone" speed="8.33" length="17.24" shape="981.77,1402.98 977.07,1401.42 974.00,1399.91 971.22,1397.85 967.42,1394.62"/>
    </edge>
    <edge id=":27233754_6" function="internal">
        <lane id=":27233754_6_0" index="0" allow="bus bicycle" speed="6.82" length="9.07" shape="963.71,1410.86 964.69,1408.71 964.78,1406.66 963.96,1404.69 962.26,1402.82"/>
        <lane id=":27233754_6_1" index="1" allow="bus bicycle" speed="7.72" length="11.87" shape="963.71,1410.86 965.46,1407.53 966.09,1404.62 965.59,1402.14 963.98,1400.09"/>
    </edge>
    <edge id=":27233766_0" function="internal">
        <lane id=":27233766_0_0" index="0" disallow="tram rail_urban rail rail_electric rail_fast ship container cable_car subway aircraft wheelchair scooter drone" speed="6.05" length="13.84" shape="895.69,1527.77 893.03,1529.95 889.97,1529.58 887.46,1527.23 886.45,1523.49"/>
    </edge>
    <edge id=":27233766_1" function="internal">
        <lane id=":27233766_1_0" index="0" allow="bus bicycle" speed="3.65" length="4.67" shape="892.93,1526.15 891.63,1526.78 890.74,1526.72 890.25,1525.97 890.17,1524.53"/>
    </edge>
    <edge id=":27233853_0" function="internal">
        <lane id=":27233853_0_0" index="0" disallow="tram rail_urban rail rail_electric rail_fast ship container cable_car subway aircraft wheelchair scooter drone" speed="5.60" length="7.07" shape="1086.89,1413.16 1086.20,1414.32 1086.36,1415.67 1087.38,1417.20 1089.23,1418.92"/>
    </edge>
    <edge id=":27233853_1" function="internal">
        <lane id=":27233853_1_0" index="0" disallow="tram rail_urban rail rail_electric rail_fast ship container cable_car subway aircraft wheelchair scooter drone" speed="3.71" length="4.36" shape="1086.89,1413.16 1085.54,1413.15 1084.82,1412.72 1084.73,1411.90 1085.26,1410.66"/>
    </edge>
    <edge id=":27233853_2" function="internal">
        <lane id=":27233853_2_0" index="0" disallow="tram rail_urban rail rail_electric rail_fast ship container cable_car subway aircraft wheelchair scooter drone" speed="7.51" length="7.89" shape="1077.81,1410.13 1079.55,1411.11 1081.37,1411.52 1083.27,1411.37 1085.26,1410.66"/>
    </edge>
    <edge id=":27233853_3" function="internal">
        <lane id=":27233853_3_0" index="0" disallow="tram rail_urban rail rail_electric rail_fast ship container cable_car subway aircraft wheelchair scooter drone" speed="8.33" length="14.42" shape="1077.81,1410.13 1089.23,1418.92"/>
    </edge>
    <edge id=":27233893_0" function="internal">
        <lane id=":27233893_0_0" index="0" disallow="tram rail_urban rail rail_electric rail_fast ship container cable_car subway aircraft wheelchair scooter drone" speed="3.65" length="4.67" shape="1389.08,1282.61 1390.42,1283.14 1390.98,1283.84 1390.76,1284.70 1389.76,1285.74"/>
    </edge>
    <edge id=":27234149_0" function="internal">
        <lane id=":27234149_0_0" index="0" disallow="tram rail_urban rail rail_electric rail_fast ship container cable_car subway aircraft wheelchair scooter drone" speed="3.65" length="4.67" shape="926.38,1141.33 926.73,1139.93 927.35,1139.28 928.24,1139.40 929.40,1140.26"/>
    </edge>
    <edge id=":27234193_0" function="internal">
        <lane id=":27234193_0_0" index="0" disallow="tram rail_urban rail rail_electric rail_fast ship container cable_car subway aircraft wheelchair scooter drone" speed="3.65" length="4.67" shape="1228.89,1004.82 1230.22,1004.26 1231.11,1004.36 1231.56,1005.13 1231.57,1006.58"/>
    </edge>
    <edge id=":27235559_0" function="internal">
        <lane id=":27235559_0_0" index="0" allow="bus bicycle" speed="5.86" length="7.49" shape="878.10,1397.20 877.67,1395.38 876.63,1394.17 874.97,1393.58 872.71,1393.60"/>
        <lane id=":27235559_0_1" index="1" disallow="tram rail_urban rail rail_electric rail_fast ship container cable_car subway aircraft wheelchair scooter drone" speed="6.73" length="10.24" shape="878.10,1397.20 877.57,1393.98 876.43,1391.77 874.68,1390.59 872.31,1390.42"/>
    </edge>
    <edge id=":27235559_2" function="internal">
        <lane id=":27235559_2_0" index="0" disallow="tram rail_urban rail rail_electric rail_fast ship container cable_car subway aircraft wheelchair scooter drone" speed="8.33" length="14.39" shape="878.10,1397.20 878.19,1392.43 879.09,1388.79 880.80,1386.31 883.32,1384.96"/>
    </edge>
    <edge id=":27235559_3" function="internal">
        <lane id=":27235559_3_0" index="0" allow="bus bicycle" speed="8.33" length="12.29" shape="884.88,1390.88 881.33,1391.96 878.88,1392.63 876.38,1393.09 872.71,1393.60"/>
        <lane id=":27235559_3_1" index="1" disallow="tram rail_urban rail rail_electric rail_fast ship container cable_car subway aircraft wheelchair scooter drone" speed="8.33" length="12.29" shape="884.06,1387.79 880.64,1388.83 878.26,1389.48 875.85,1389.94 872.31,1390.42"/>
    </edge>
    <edge id=":27235559_5" function="internal">
        <lane id=":27235559_5_0" index="0" disallow="tram rail_urban rail rail_electric rail_fast ship container cable_car subway aircraft wheelchair scooter drone" speed="3.56" length="1.10" shape="884.06,1387.79 883.03,1387.43"/>
    </edge>
    <edge id=":27235559_10" function="internal">
        <lane id=":27235559_10_0" index="0" disallow="tram rail_urban rail rail_electric rail_fast ship container cable_car subway aircraft wheelchair scooter drone" speed="3.56" length="3.17" shape="883.03,1387.43 882.82,1387.36 882.28,1386.75 882.45,1385.95 883.32,1384.96"/>
    </edge>
    <edge id=":27235559_6" function="internal">
        <lane id=":27235559_6_0" index="0" disallow="tram rail_urban rail rail_electric rail_fast ship container cable_car subway aircraft wheelchair scooter drone" speed="6.55" length="10.73" shape="877.25,1378.37 877.72,1381.83 878.90,1384.08 880.76,1385.13 883.32,1384.96"/>
    </edge>
    <edge id=":27235559_7" function="internal">
        <lane id=":27235559_7_0" index="0" disallow="tram rail_urban rail rail_electric rail_fast ship container cable_car subway aircraft wheelchair scooter drone" speed="8.28" length="14.15" shape="877.25,1378.37 877.08,1383.39 876.20,1387.07 874.61,1389.41 872.31,1390.42"/>
    </edge>
    <edge id=":27235559_8" function="internal">
        <lane id=":27235559_8_0" index="0" disallow="tram rail_urban rail rail_electric rail_fast ship container cable_car subway aircraft wheelchair scooter drone" speed="8.33" length="11.97" shape="871.49,1384.07 875.14,1384.08 877.80,1384.72 880.26,1385.26 883.32,1384.96"/>
    </edge>
    <edge id=":27235559_9" function="internal">
        <lane id=":27235559_9_0" index="0" disallow="tram rail_urban rail rail_electric rail_fast ship container cable_car subway aircraft wheelchair scooter drone" speed="3.65" length="1.44" shape="871.90,1387.25 873.19,1387.89"/>
    </edge>
    <edge id=":27235559_11" function="internal">
        <lane id=":27235559_11_0" index="0" disallow="tram rail_urban rail rail_electric rail_fast ship container cable_car subway aircraft wheelchair scooter drone" speed="3.65" length="3.23" shape="873.19,1387.89 873.69,1388.63 873.39,1389.48 872.31,1390.42"/>
    </edge>
    <edge id=":2865274903_0" function="internal">
        <lane id=":2865274903_0_0" index="0" disallow="tram rail_urban rail rail_electric rail_fast ship container cable_car subway aircraft wheelchair scooter drone" speed="8.33" length="0.30" shape="1227.28,1013.12 1227.11,1013.37"/>
    </edge>
    <edge id=":2865274903_1" function="internal">
        <lane id=":2865274903_1_0" index="0" disallow="tram rail_urban rail rail_electric rail_fast ship container cable_car subway aircraft wheelchair scooter drone" speed="8.33" length="0.30" shape="1224.43,1011.62 1224.60,1011.36"/>
    </edge>
    <edge id=":2865274922_0" function="internal">
        <lane id=":2865274922_0_0" index="0" disallow="tram rail_urban rail rail_electric rail_fast ship container cable_car subway aircraft wheelchair scooter drone" speed="8.33" length="0.10" shape="950.45,1314.72 950.45,1314.72"/>
    </edge>
    <edge id=":2865274923_0" function="internal">
        <lane id=":2865274923_0_0" index="0" disallow="tram rail_urban rail rail_electric rail_fast ship container cable_car subway aircraft wheelchair scooter drone" speed="8.33" length="5.41" shape="1134.09,1323.01 1134.11,1324.62 1134.16,1325.71 1134.27,1326.81 1134.49,1328.40"/>
    </edge>
    <edge id=":297207214_0" function="internal">