<?xml version="1.0" encoding="UTF-8"?>

<!-- generated on 2024-09-03 01:37:55 by Eclipse SUMO netconvert Version 1.20.0
<configuration xmlns:xsi="http://www.w3.org/2001/XMLSchema-instance" xsi:noNamespaceSchemaLocation="http://sumo.dlr.de/xsd/netconvertConfiguration.xsd">

    <input>
        <osm-files value="train_files/roundabout/middle/osm_files/map(5).osm"/>
    </input>

    <output>
        <output-file value="train_files/roundabout/middle/outputs/map(5)_dict/map(5)/map(5).net.xml"/>
    </output>

    <projection>
        <proj.utm value="true"/>
    </projection>

    <building_defaults>
        <default.junctions.keep-clear value="false"/>
    </building_defaults>

</configuration>
-->

<net version="1.20" junctionCornerDetail="5" limitTurnSpeed="5.50" xmlns:xsi="http://www.w3.org/2001/XMLSchema-instance" xsi:noNamespaceSchemaLocation="http://sumo.dlr.de/xsd/net_file.xsd">

    <location netOffset="-443332.20,-5410044.62" convBoundary="0.00,0.00,3294.41,719.75" origBoundary="2.227696,48.840793,2.272505,48.847529" projParameter="+proj=utm +zone=31 +ellps=WGS84 +datum=WGS84 +units=m +no_defs"/>

    <type id="highway.footway" priority="1" numLanes="1" speed="2.78" allow="pedestrian" oneway="1" width="2.00"/>
    <type id="highway.pedestrian" priority="1" numLanes="1" speed="2.78" allow="pedestrian" oneway="1" width="2.00"/>
    <type id="highway.residential" priority="3" numLanes="1" speed="13.89" disallow="tram rail_urban rail rail_electric rail_fast ship container cable_car subway aircraft wheelchair scooter drone" oneway="0"/>
    <type id="highway.service" priority="1" numLanes="1" speed="5.56" allow="pedestrian delivery bicycle" oneway="0"/>
    <type id="highway.steps" priority="1" numLanes="1" speed="1.39" allow="pedestrian" oneway="1" width="2.00"/>
    <type id="highway.tertiary" priority="10" numLanes="1" speed="22.22" disallow="tram rail_urban rail rail_electric rail_fast ship container cable_car subway aircraft wheelchair scooter drone" oneway="0"/>
    <type id="highway.tertiary_link" priority="5" numLanes="1" speed="22.22" disallow="tram rail_urban rail rail_electric rail_fast ship container cable_car subway aircraft wheelchair scooter drone" oneway="0"/>
    <type id="railway.subway" priority="18" numLanes="1" speed="27.78" allow="subway" oneway="1"/>

    <edge id=":1003098514_0" function="internal">
        <lane id=":1003098514_0_0" index="0" disallow="tram rail_urban rail rail_electric rail_fast ship container cable_car subway aircraft wheelchair scooter drone" speed="8.33" length="7.66" shape="2855.55,450.52 2857.73,449.89 2859.20,449.38 2860.64,448.78 2862.73,447.88"/>
    </edge>
    <edge id=":1003141708_0" function="internal">
        <lane id=":1003141708_0_0" index="0" disallow="tram rail_urban rail rail_electric rail_fast ship container cable_car subway aircraft wheelchair scooter drone" speed="8.33" length="0.30" shape="2862.50,466.58 2862.23,466.46"/>
    </edge>
    <edge id=":1003141736_0" function="internal">
        <lane id=":1003141736_0_0" index="0" disallow="tram rail_urban rail rail_electric rail_fast ship container cable_car subway aircraft wheelchair scooter drone" speed="8.33" length="11.64" shape="2908.10,511.92 2901.69,502.20"/>
        <lane id=":1003141736_0_1" index="1" disallow="tram rail_urban rail rail_electric rail_fast ship container cable_car subway aircraft wheelchair scooter drone" speed="8.33" length="11.64" shape="2910.77,510.16 2904.37,500.44"/>
    </edge>
    <edge id=":1003141736_2" function="internal">
        <lane id=":1003141736_2_0" index="0" disallow="tram rail_urban rail rail_electric rail_fast ship container cable_car subway aircraft wheelchair scooter drone" speed="8.33" length="11.53" shape="2913.07,505.92 2909.26,506.07 2906.10,505.50 2903.57,504.21 2901.69,502.20"/>
        <lane id=":1003141736_2_1" index="1" disallow="tram rail_urban rail rail_electric rail_fast ship container cable_car subway aircraft wheelchair scooter drone" speed="7.12" length="11.53" shape="2913.44,502.43 2910.75,503.51 2908.34,503.53 2906.21,502.51 2904.37,500.44"/>
    </edge>
    <edge id=":10992353029_0" function="internal">
        <lane id=":10992353029_0_0" index="0" allow="pedestrian delivery bicycle" speed="8.33" length="4.63" shape="2871.35,435.10 2867.56,437.76"/>
    </edge>
    <edge id=":10992353029_1" function="internal">
        <lane id=":10992353029_1_0" index="0" allow="pedestrian delivery bicycle" speed="3.65" length="1.44" shape="2871.35,435.10 2869.91,435.13"/>
    </edge>
    <edge id=":10992353029_4" function="internal">
        <lane id=":10992353029_4_0" index="0" allow="pedestrian delivery bicycle" speed="3.65" length="3.23" shape="2869.91,435.13 2869.13,434.71 2869.00,433.82 2869.52,432.48"/>
    </edge>
    <edge id=":10992353029_2" function="internal">
        <lane id=":10992353029_2_0" index="0" allow="pedestrian delivery bicycle" speed="8.33" length="4.63" shape="2865.72,435.14 2869.52,432.48"/>
    </edge>
    <edge id=":10992353029_3" function="internal">
        <lane id=":10992353029_3_0" index="0" allow="pedestrian delivery bicycle" speed="3.65" length="1.44" shape="2865.72,435.14 2867.17,435.10"/>
    </edge>
    <edge id=":10992353029_5" function="internal">
        <lane id=":10992353029_5_0" index="0" allow="pedestrian delivery bicycle" speed="3.65" length="3.23" shape="2867.17,435.10 2867.95,435.53 2868.08,436.41 2867.56,437.76"/>
    </edge>
    <edge id=":11813910669_0" function="internal">
        <lane id=":11813910669_0_0" index="0" disallow="tram rail_urban rail rail_electric rail_fast ship container cable_car subway aircraft wheelchair scooter drone" speed="8.33" length="0.61" shape="2398.70,478.41 2398.52,478.44 2398.40,478.47 2398.28,478.48 2398.10,478.49"/>
    </edge>
    <edge id=":11813910669_1" function="internal">
        <lane id=":11813910669_1_0" index="0" disallow="tram rail_urban rail rail_electric rail_fast ship container cable_car subway aircraft wheelchair scooter drone" speed="8.33" length="0.20" shape="2397.85,475.30 2397.91,475.30 2397.96,475.29 2398.00,475.29 2398.06,475.27"/>
    </edge>
    <edge id=":11813910670_0" function="internal">
        <lane id=":11813910670_0_0" index="0" disallow="tram rail_urban rail rail_electric rail_fast ship container cable_car subway aircraft wheelchair scooter drone" speed="8.33" length="0.28" shape="2392.04,478.95 2391.75,478.97"/>
    </edge>
    <edge id=":11813910670_1" function="internal">
        <lane id=":11813910670_1_0" index="0" disallow="tram rail_urban rail rail_electric rail_fast ship container cable_car subway aircraft wheelchair scooter drone" speed="8.33" length="0.15" shape="2391.64,475.77 2391.79,475.76"/>
    </edge>
    <edge id=":1225227224_0" function="internal">
        <lane id=":1225227224_0_0" index="0" disallow="tram rail_urban rail rail_electric rail_fast ship container cable_car subway aircraft wheelchair scooter drone" speed="8.33" length="0.25" shape="2503.98,472.07 2503.73,472.08"/>
    </edge>
    <edge id=":1225227224_1" function="internal">
        <lane id=":1225227224_1_0" index="0" disallow="tram rail_urban rail rail_electric rail_fast ship container cable_car subway aircraft wheelchair scooter drone" speed="8.33" length="0.31" shape="2503.55,468.89 2503.86,468.87"/>
    </edge>
    <edge id=":1225227352_0" function="internal">
        <lane id=":1225227352_0_0" index="0" disallow="tram rail_urban rail rail_electric rail_fast ship container cable_car subway aircraft wheelchair scooter drone" speed="8.33" length="0.30" shape="2529.93,470.90 2529.63,470.92"/>
    </edge>
    <edge id=":1225227352_1" function="internal">
        <lane id=":1225227352_1_0" index="0" disallow="tram rail_urban rail rail_electric rail_fast ship container cable_car subway aircraft wheelchair scooter drone" speed="8.33" length="0.30" shape="2529.46,467.72 2529.76,467.71"/>
    </edge>
    <edge id=":1225227361_0" function="internal">
        <lane id=":1225227361_0_0" index="0" disallow="tram rail_urban rail rail_electric rail_fast ship container cable_car subway aircraft wheelchair scooter drone" speed="8.33" length="0.24" shape="2426.56,475.18 2426.33,475.19"/>
    </edge>
    <edge id=":1225227361_1" function="internal">
        <lane id=":1225227361_1_0" index="0" disallow="tram rail_urban rail rail_electric rail_fast ship container cable_car subway aircraft wheelchair scooter drone" speed="8.33" length="0.31" shape="2426.13,472.00 2426.44,471.98"/>
    </edge>
    <edge id=":1225227384_0" function="internal">
        <lane id=":1225227384_0_0" index="0" disallow="tram rail_urban rail rail_electric rail_fast ship container cable_car subway aircraft wheelchair scooter drone" speed="8.33" length="0.30" shape="2523.23,471.26 2522.93,471.27"/>
    </edge>
    <edge id=":1225227384_1" function="internal">
        <lane id=":1225227384_1_0" index="0" disallow="tram rail_urban rail rail_electric rail_fast ship container cable_car subway aircraft wheelchair scooter drone" speed="8.33" length="0.30" shape="2522.77,468.08 2523.06,468.06"/>
    </edge>
    <edge id=":1225227407_0" function="internal">
        <lane id=":1225227407_0_0" index="0" disallow="tram rail_urban rail rail_electric rail_fast ship container cable_car subway aircraft wheelchair scooter drone" speed="8.33" length="0.31" shape="2495.52,472.55 2495.21,472.56"/>
    </edge>
    <edge id=":1225227407_1" function="internal">
        <lane id=":1225227407_1_0" index="0" disallow="tram rail_urban rail rail_electric rail_fast ship container cable_car subway aircraft wheelchair scooter drone" speed="8.33" length="0.25" shape="2495.09,469.37 2495.34,469.35"/>
    </edge>
    <edge id=":1226636430_0" function="internal">
        <lane id=":1226636430_0_0" index="0" disallow="tram rail_urban rail rail_electric rail_fast ship container cable_car subway aircraft wheelchair scooter drone" speed="8.33" length="0.10" shape="2305.41,482.04 2305.51,482.04"/>
    </edge>
    <edge id=":1226636430_1" function="internal">
        <lane id=":1226636430_1_0" index="0" disallow="tram rail_urban rail rail_electric rail_fast ship container cable_car subway aircraft wheelchair scooter drone" speed="8.33" length="0.10" shape="2305.21,478.85 2305.30,478.84"/>
    </edge>
    <edge id=":123456823_0" function="internal">
        <lane id=":123456823_0_0" index="0" disallow="tram rail_urban rail rail_electric rail_fast ship container cable_car subway aircraft wheelchair scooter drone" speed="8.33" length="0.25" shape="2682.67,462.89 2682.41,462.90"/>
    </edge>
    <edge id=":123456823_1" function="internal">
        <lane id=":123456823_1_0" index="0" disallow="tram rail_urban rail rail_electric rail_fast ship container cable_car subway aircraft wheelchair scooter drone" speed="8.33" length="0.31" shape="2682.21,459.71 2682.52,459.69"/>
    </edge>
    <edge id=":123469144_0" function="internal">
        <lane id=":123469144_0_0" index="0" disallow="tram rail_urban rail rail_electric rail_fast ship container cable_car subway aircraft wheelchair scooter drone" speed="8.33" length="10.23" shape="2868.77,451.07 2863.49,442.71"/>
        <lane id=":123469144_0_1" index="1" disallow="tram rail_urban rail rail_electric rail_fast ship container cable_car subway aircraft wheelchair scooter drone" speed="8.33" length="10.23" shape="2868.77,451.07 2867.64,448.33 2867.53,446.09 2867.40,443.83 2866.20,440.99"/>
    </edge>
    <edge id=":123469144_2" function="internal">
        <lane id=":123469144_2_0" index="0" disallow="tram rail_urban rail rail_electric rail_fast ship container cable_car subway aircraft wheelchair scooter drone" speed="3.65" length="4.67" shape="2868.77,451.07 2868.81,449.63 2869.27,448.87 2870.16,448.78 2871.48,449.37"/>
    </edge>
    <edge id=":123469144_3" function="internal">
        <lane id=":123469144_3_0" index="0" disallow="tram rail_urban rail rail_electric rail_fast ship container cable_car subway aircraft wheelchair scooter drone" speed="5.19" length="6.03" shape="2862.91,447.81 2864.08,447.01 2864.56,445.90 2864.37,444.46 2863.49,442.71"/>
    </edge>
    <edge id=":123469144_4" function="internal">
        <lane id=":123469144_4_0" index="0" disallow="tram rail_urban rail rail_electric rail_fast ship container cable_car subway aircraft wheelchair scooter drone" speed="7.09" length="9.58" shape="2862.91,447.81 2865.70,446.95 2868.05,446.93 2869.98,447.74 2871.48,449.37"/>
    </edge>
    <edge id=":157530500_0" function="internal">
        <lane id=":157530500_0_0" index="0" disallow="tram rail_urban rail rail_electric rail_fast ship container cable_car subway aircraft wheelchair scooter drone" speed="3.65" length="4.67" shape="3155.33,599.26 3156.07,600.50 3156.08,601.40 3155.38,601.95 3153.95,602.15"/>
    </edge>
    <edge id=":305917913_0" function="internal">
        <lane id=":305917913_0_0" index="0" disallow="tram rail_urban rail rail_electric rail_fast ship container cable_car subway aircraft wheelchair scooter drone" speed="8.33" length="20.19" shape="2891.83,487.21 2888.06,481.67 2884.71,477.44 2881.46,474.57 2878.00,473.10"/>
    </edge>
    <edge id=":305917913_1" function="internal">
        <lane id=":305917913_1_0" index="0" disallow="tram rail_urban rail rail_electric rail_fast ship container cable_car subway aircraft wheelchair scooter drone" speed="8.33" length="21.23" shape="2894.50,485.45 2890.35,480.05 2886.39,475.99 2882.97,472.70 2880.42,469.61"/>
    </edge>
    <edge id=":305917913_2" function="internal">
        <lane id=":305917913_2_0" index="0" disallow="tram rail_urban rail rail_electric rail_fast ship container cable_car subway aircraft wheelchair scooter drone" speed="8.33" length="20.12" shape="2883.13,467.91 2885.46,470.91 2888.63,473.71 2892.93,476.55 2898.61,479.70"/>
        <lane id=":305917913_2_1" index="1" disallow="tram rail_urban rail rail_electric rail_fast ship container cable_car subway aircraft wheelchair scooter drone" speed="8.33" length="20.12" shape="2883.13,467.91 2885.19,471.33 2887.80,475.08 2891.58,478.89 2897.13,482.54"/>
    </edge>
    <edge id=":305917913_4" function="internal">
        <lane id=":305917913_4_0" index="0" disallow="tram rail_urban rail rail_electric rail_fast ship container cable_car subway aircraft wheelchair scooter drone" speed="3.65" length="4.67" shape="2883.13,467.91 2883.09,469.35 2882.62,470.12 2881.73,470.20 2880.42,469.61"/>
    </edge>
    <edge id=":305917914_0" function="internal">
        <lane id=":305917914_0_0" index="0" disallow="tram rail_urban rail rail_electric rail_fast ship container cable_car subway aircraft wheelchair scooter drone" speed="8.33" length="3.60" shape="2844.42,457.78 2843.47,457.32 2842.78,457.06 2842.06,456.92 2841.00,456.83"/>
    </edge>
    <edge id=":305917914_1" function="internal">
        <lane id=":305917914_1_0" index="0" disallow="tram rail_urban rail rail_electric rail_fast ship container cable_car subway aircraft wheelchair scooter drone" speed="8.33" length="4.03" shape="2841.25,453.64 2842.44,453.73 2843.27,453.75 2844.08,453.64 2845.23,453.35"/>
    </edge>
    <edge id=":305917914_2" function="internal">
        <lane id=":305917914_2_0" index="0" disallow="tram rail_urban rail rail_electric rail_fast ship container cable_car subway aircraft wheelchair scooter drone" speed="3.65" length="4.67" shape="2841.25,453.64 2842.38,454.53 2842.72,455.36 2842.26,456.12 2841.00,456.83"/>
    </edge>
    <edge id=":305918147_0" function="internal">
        <lane id=":305918147_0_0" index="0" disallow="tram rail_urban rail rail_electric rail_fast ship container cable_car subway aircraft wheelchair scooter drone" speed="8.33" length="5.05" shape="2912.81,519.07 2910.03,514.85"/>
        <lane id=":305918147_0_1" index="1" disallow="tram rail_urban rail rail_electric rail_fast ship container cable_car subway aircraft wheelchair scooter drone" speed="8.33" length="5.05" shape="2915.48,517.31 2912.70,513.09"/>
    </edge>
    <edge id=":305918252_0" function="internal">
        <lane id=":305918252_0_0" index="0" disallow="tram rail_urban rail rail_electric rail_fast ship container cable_car subway aircraft wheelchair scooter drone" speed="8.33" length="12.12" shape="2901.24,501.51 2894.58,491.39"/>
        <lane id=":305918252_0_1" index="1" disallow="tram rail_urban rail rail_electric rail_fast ship container cable_car subway aircraft wheelchair scooter drone" speed="8.33" length="12.67" shape="2901.24,501.51 2899.65,498.18 2899.25,495.57 2898.84,492.96 2897.25,489.63"/>
    </edge>
    <edge id=":305918252_2" function="internal">
        <lane id=":305918252_2_0" index="0" disallow="tram rail_urban rail rail_electric rail_fast ship container cable_car subway aircraft wheelchair scooter drone" speed="8.33" length="10.88" shape="2901.24,501.51 2899.77,498.47 2899.37,495.45 2900.05,492.48 2901.81,489.54"/>
        <lane id=":305918252_2_1" index="1" disallow="tram rail_urban rail rail_electric rail_fast ship container cable_car subway aircraft wheelchair scooter drone" speed="7.33" length="10.88" shape="2903.92,499.75 2902.90,497.67 2902.63,495.60 2903.10,493.56 2904.30,491.55"/>
    </edge>
    <edge id=":34819213_0" function="internal">
        <lane id=":34819213_0_0" index="0" disallow="tram rail_urban rail rail_electric rail_fast ship container cable_car subway aircraft wheelchair scooter drone" speed="8.33" length="0.10" shape="3029.38,696.13 3029.38,696.13"/>
        <lane id=":34819213_0_1" index="1" disallow="tram rail_urban rail rail_electric rail_fast ship container cable_car subway aircraft wheelchair scooter drone" speed="8.33" length="0.10" shape="3032.06,694.37 3032.06,694.37"/>
    </edge>
    <edge id=":4271473098_0" function="internal">
        <lane id=":4271473098_0_0" index="0" disallow="tram rail_urban rail rail_electric rail_fast ship container cable_car subway aircraft wheelchair scooter drone" speed="8.33" length="8.02" shape="2863.39,442.54 2859.06,435.81"/>
        <lane id=":4271473098_0_1" index="1" disallow="tram rail_urban rail rail_electric rail_fast ship container cable_car subway aircraft wheelchair scooter drone" speed="8.33" length="8.02" shape="2866.09,440.82 2861.75,434.07"/>
    </edge>
    <edge id=":4271473098_2" function="internal">
        <lane id=":4271473098_2_0" index="0" allow="pedestrian delivery bicycle" speed="5.59" length="6.17" shape="2866.09,440.82 2865.08,438.93 2864.65,437.37 2864.81,436.14 2865.56,435.25"/>
    </edge>
    <edge id=":4271473098_3" function="internal">
        <lane id=":4271473098_3_0" index="0" allow="pedestrian delivery bicycle" speed="5.91" length="7.47" shape="2867.39,437.87 2866.22,438.21 2864.89,437.69 2863.40,436.30 2861.75,434.07"/>
    </edge>
    <edge id=":4271473098_4" function="internal">
        <lane id=":4271473098_4_0" index="0" allow="pedestrian delivery bicycle" speed="3.65" length="4.67" shape="2867.39,437.87 2865.95,437.90 2865.17,437.48 2865.04,436.59 2865.56,435.25"/>
    </edge>
    <edge id=":4271473106_0" function="internal">
        <lane id=":4271473106_0_0" index="0" allow="pedestrian delivery bicycle" speed="3.65" length="4.67" shape="2855.17,408.81 2853.80,408.37 2853.20,407.71 2853.36,406.83 2854.30,405.73"/>
    </edge>
    <edge id=":5526393745_0" function="internal">
        <lane id=":5526393745_0_0" index="0" disallow="tram rail_urban rail rail_electric rail_fast ship container cable_car subway aircraft wheelchair scooter drone" speed="8.33" length="0.27" shape="3143.43,597.10 3143.18,596.99"/>
    </edge>
    <edge id=":5526393745_1" function="internal">
        <lane id=":5526393745_1_0" index="0" disallow="tram rail_urban rail rail_electric rail_fast ship container cable_car subway aircraft wheelchair scooter drone" speed="8.33" length="0.31" shape="3144.53,594.08 3144.81,594.22"/>
    </edge>
    <edge id=":5526393749_0" function="internal">
        <lane id=":5526393749_0_0" index="0" disallow="tram rail_urban rail rail_electric rail_fast ship container cable_car subway aircraft wheelchair scooter drone" speed="8.33" length="9.70" shape="2931.78,500.40 2929.30,499.59 2927.46,499.64 2925.57,500.21 2922.94,500.98"/>
        <lane id=":5526393749_0_1" index="1" disallow="tram rail_urban rail rail_electric rail_fast ship container cable_car subway aircraft wheelchair scooter drone" speed="8.33" length="9.70" shape="2931.78,500.40 2929.05,499.00 2927.10,497.96 2925.10,497.50 2922.21,497.87"/>
    </edge>
    <edge id=":5526393749_2" function="internal">
        <lane id=":5526393749_2_0" index="0" disallow="tram rail_urban rail rail_electric rail_fast ship container cable_car subway aircraft wheelchair scooter drone" speed="3.65" length="1.44" shape="2931.78,500.40 2931.01,499.18"/>
    </edge>
    <edge id=":5526393749_5" function="internal">
        <lane id=":5526393749_5_0" index="0" disallow="tram rail_urban rail rail_electric rail_fast ship container cable_car subway aircraft wheelchair scooter drone" speed="3.65" length="3.23" shape="2931.01,499.18 2930.97,498.29 2931.66,497.72 2933.08,497.48"/>
    </edge>
    <edge id=":5526393749_3" function="internal">
        <lane id=":5526393749_3_0" index="0" disallow="tram rail_urban rail rail_electric rail_fast ship container cable_car subway aircraft wheelchair scooter drone" speed="8.33" length="10.10" shape="2924.05,492.97 2933.08,497.48"/>
    </edge>
    <edge id=":5526393749_4" function="internal">
        <lane id=":5526393749_4_0" index="0" disallow="tram rail_urban rail rail_electric rail_fast ship container cable_car subway aircraft wheelchair scooter drone" speed="3.68" length="1.57" shape="2922.57,495.81 2923.53,496.45 2923.70,496.83"/>
    </edge>
    <edge id=":5526393749_6" function="internal">
        <lane id=":5526393749_6_0" index="0" disallow="tram rail_urban rail rail_electric rail_fast ship container cable_car subway aircraft wheelchair scooter drone" speed="3.68" length="2.04" shape="2923.70,496.83 2923.79,497.00 2923.35,497.48 2922.21,497.87"/>
    </edge>
    <edge id=":5528374937_0" function="internal">
        <lane id=":5528374937_0_0" index="0" disallow="tram rail_urban rail rail_electric rail_fast ship container cable_car subway aircraft wheelchair scooter drone" speed="8.33" length="0.30" shape="2854.93,429.42 2854.76,429.17"/>
        <lane id=":5528374937_0_1" index="1" disallow="tram rail_urban rail rail_electric rail_fast ship container cable_car subway aircraft wheelchair scooter drone" speed="8.33" length="0.30" shape="2857.61,427.68 2857.45,427.43"/>
    </edge>
    <edge id=":5528374938_0" function="internal">
        <lane id=":5528374938_0_0" index="0" disallow="tram rail_urban rail rail_electric rail_fast ship container cable_car subway aircraft wheelchair scooter drone" speed="8.33" length="0.10" shape="2696.42,462.25 2696.42,462.25"/>
    </edge>
    <edge id=":5528374938_1" function="internal">
        <lane id=":5528374938_1_0" index="0" disallow="tram rail_urban rail rail_electric rail_fast ship container cable_car subway aircraft wheelchair scooter drone" speed="8.33" length="0.10" shape="2696.27,459.05 2696.27,459.05"/>
    </edge>
    <edge id=":5528374945_0" function="internal">
        <lane id=":5528374945_0_0" index="0" disallow="tram rail_urban rail rail_electric rail_fast ship container cable_car subway aircraft wheelchair scooter drone" speed="8.33" length="0.23" shape="2728.15,235.04 2728.09,234.94"/>
        <lane id=":5528374945_0_1" index="1" disallow="tram rail_urban rail rail_electric rail_fast ship container cable_car subway aircraft wheelchair scooter drone" speed="8.33" length="0.23" shape="2730.85,233.31 2730.65,233.02"/>
    </edge>
    <edge id=":6206544263_0" function="internal">
        <lane id=":6206544263_0_0" index="0" disallow="tram rail_urban rail rail_electric rail_fast ship container cable_car subway aircraft wheelchair scooter drone" speed="8.33" length="6.67" shape="2922.74,501.03 2921.15,501.44 2920.09,501.84 2919.12,502.43 2917.79,503.40"/>
        <lane id=":6206544263_0_1" index="1" disallow="tram rail_urban rail rail_electric rail_fast ship container cable_car subway aircraft wheelchair scooter drone" speed="8.33" length="6.67" shape="2922.01,497.91 2919.80,498.50 2918.34,499.11 2917.01,499.99 2915.17,501.36"/>
    </edge>
    <edge id=":6206544263_2" function="internal">
        <lane id=":6206544263_2_0" index="0" disallow="tram rail_urban rail rail_electric rail_fast ship container cable_car subway aircraft wheelchair scooter drone" speed="8.33" length="4.67" shape="2921.62,497.30 2920.75,499.31 2920.18,500.75 2919.38,502.00 2917.79,503.40"/>
        <lane id=":6206544263_2_1" index="1" disallow="tram rail_urban rail rail_electric rail_fast ship container cable_car subway aircraft wheelchair scooter drone" speed="7.63" length="4.67" shape="2916.63,500.08 2916.32,500.57 2916.02,500.83 2915.66,501.04 2915.17,501.36"/>
    </edge>
    <edge id=":644079_0" function="internal">
        <lane id=":644079_0_0" index="0" disallow="tram rail_urban rail rail_electric rail_fast ship container cable_car subway aircraft wheelchair scooter drone" speed="3.65" length="4.67" shape="2278.41,483.89 2277.17,483.16 2276.72,482.39 2277.08,481.57 2278.23,480.70"/>
    </edge>
    <edge id=":659728069_0" function="internal">
        <lane id=":659728069_0_0" index="0" disallow="tram rail_urban rail rail_electric rail_fast ship container cable_car subway aircraft wheelchair scooter drone" speed="8.33" length="11.20" shape="2902.71,481.84 2912.65,487.02"/>
        <lane id=":659728069_0_1" index="1" disallow="tram rail_urban rail rail_electric rail_fast ship container cable_car subway aircraft wheelchair scooter drone" speed="8.33" length="11.20" shape="2901.23,484.68 2911.16,489.86"/>
    </edge>
    <edge id=":659728069_2" function="internal">
        <lane id=":659728069_2_0" index="0" disallow="tram rail_urban rail rail_electric rail_fast ship container cable_car subway aircraft wheelchair scooter drone" speed="7.97" length="9.83" shape="2901.94,489.38 2904.27,487.12 2906.83,485.97 2909.62,485.94 2912.65,487.02"/>
        <lane id=":659728069_2_1" index="1" disallow="tram rail_urban rail rail_electric rail_fast ship container cable_car subway aircraft wheelchair scooter drone" speed="6.45" length="9.83" shape="2904.43,491.39 2905.90,489.95 2907.52,489.22 2909.27,489.19 2911.16,489.86"/>
    </edge>
    <edge id=":659728099_0" function="internal">
        <lane id=":659728099_0_0" index="0" disallow="tram rail_urban rail rail_electric rail_fast ship container cable_car subway aircraft wheelchair scooter drone" speed="8.33" length="8.30" shape="2916.51,489.04 2923.87,492.88"/>
        <lane id=":659728099_0_1" index="1" disallow="tram rail_urban rail rail_electric rail_fast ship container cable_car subway aircraft wheelchair scooter drone" speed="8.33" length="9.08" shape="2916.51,489.04 2918.54,490.66 2919.45,492.37 2920.36,494.09 2922.39,495.71"/>
    </edge>
    <edge id=":659728099_2" function="internal">
        <lane id=":659728099_2_0" index="0" disallow="tram rail_urban rail rail_electric rail_fast ship container cable_car subway aircraft wheelchair scooter drone" speed="7.06" length="10.01" shape="2916.51,489.04 2919.59,490.98 2921.49,492.97 2922.20,495.02 2921.72,497.12"/>
        <lane id=":659728099_2_1" index="1" disallow="tram rail_urban rail rail_electric rail_fast ship container cable_car subway aircraft wheelchair scooter drone" speed="6.62" length="10.01" shape="2915.03,491.87 2916.84,493.27 2917.73,495.07 2917.69,497.28 2916.72,499.90"/>
    </edge>
    <edge id=":6660723217_0" function="internal">
        <lane id=":6660723217_0_0" index="0" disallow="tram rail_urban rail rail_electric rail_fast ship container cable_car subway aircraft wheelchair scooter drone" speed="8.33" length="5.13" shape="2861.58,466.18 2856.92,464.02"/>
    </edge>

    <edge id="-106624867#0" from="1226636430" to="644079" priority="10" type="highway.tertiary" shape="2305.36,480.44 2301.13,480.84 2286.70,481.81 2278.32,482.30">
        <lane id="-106624867#0_0" index="0" disallow="tram rail_urban rail rail_electric rail_fast ship container cable_car subway aircraft wheelchair scooter drone" speed="8.33" length="27.16" shape="2305.51,482.04 2301.26,482.43 2286.81,483.41 2278.41,483.89"/>
    </edge>
    <edge id="-106624867#1" from="11813910670" to="1226636430" priority="10" type="highway.tertiary">
        <lane id="-106624867#1_0" index="0" disallow="tram rail_urban rail rail_electric rail_fast ship container cable_car subway aircraft wheelchair scooter drone" speed="8.33" length="86.40" shape="2391.75,478.97 2305.41,482.04"/>
    </edge>
    <edge id="-106624867#10" from="305917914" to="5528374938" priority="10" type="highway.tertiary" shape="2838.98,455.06 2828.03,454.19 2754.64,457.92 2696.34,460.65">
        <lane id="-106624867#10_0" index="0" disallow="tram rail_urban rail rail_electric rail_fast ship container cable_car subway aircraft wheelchair scooter drone" speed="8.33" length="144.78" shape="2841.00,456.83 2828.01,455.79 2754.72,459.52 2696.42,462.25"/>
    </edge>
    <edge id="-106624867#2" from="11813910669" to="11813910670" priority="10" type="highway.tertiary">
        <lane id="-106624867#2_0" index="0" disallow="tram rail_urban rail rail_electric rail_fast ship container cable_car subway aircraft wheelchair scooter drone" speed="8.33" length="6.08" shape="2398.10,478.49 2392.04,478.95"/>
    </edge>
    <edge id="-106624867#3" from="1225227361" to="11813910669" priority="10" type="highway.tertiary" shape="2426.37,473.58 2422.01,473.85 2409.21,474.62 2398.18,476.88">
        <lane id="-106624867#3_0" index="0" disallow="tram rail_urban rail rail_electric rail_fast ship container cable_car subway aircraft wheelchair scooter drone" speed="8.33" length="27.88" shape="2426.33,475.19 2422.11,475.45 2409.42,476.21 2398.70,478.41"/>
    </edge>