<?xml version="1.0" encoding="UTF-8"?>

<!-- generated on 2024-09-03 01:38:12 by Eclipse SUMO netconvert Version 1.20.0
<configuration xmlns:xsi="http://www.w3.org/2001/XMLSchema-instance" xsi:noNamespaceSchemaLocation="http://sumo.dlr.de/xsd/netconvertConfiguration.xsd">

    <input>
        <osm-files value="train_files/intersection/middle/osm_files/map(82).osm"/>
    </input>

    <output>
        <output-file value="train_files/intersection/middle/outputs/map(82)_dict/map(82)/map(82).net.xml"/>
    </output>

    <projection>
        <proj.utm value="true"/>
    </projection>

    <building_defaults>
        <default.junctions.keep-clear value="false"/>
    </building_defaults>

</configuration>
-->

<net version="1.20" junctionCornerDetail="5" limitTurnSpeed="5.50" xmlns:xsi="http://www.w3.org/2001/XMLSchema-instance" xsi:noNamespaceSchemaLocation="http://sumo.dlr.de/xsd/net_file.xsd">

    <location netOffset="-399673.30,-5781943.22" convBoundary="0.00,0.00,659.88,508.77" origBoundary="7.532625,52.178830,7.542196,52.183520" projParameter="+proj=utm +zone=32 +ellps=WGS84 +datum=WGS84 +units=m +no_defs"/>

    <type id="highway.cycleway" priority="1" numLanes="1" speed="5.56" allow="bicycle" oneway="0" width="2.00"/>
    <type id="highway.footway" priority="1" numLanes="1" speed="2.78" allow="pedestrian" oneway="1" width="2.00"/>
    <type id="highway.path" priority="1" numLanes="1" speed="5.56" allow="pedestrian bicycle" oneway="0" width="2.00"/>
    <type id="highway.primary" priority="12" numLanes="2" speed="27.78" disallow="tram rail_urban rail rail_electric rail_fast ship container cable_car subway aircraft wheelchair scooter drone" oneway="0"/>
    <type id="highway.primary_link" priority="7" numLanes="1" speed="22.22" disallow="tram rail_urban rail rail_electric rail_fast ship container cable_car subway aircraft wheelchair scooter drone" oneway="0"/>
    <type id="highway.residential" priority="3" numLanes="1" speed="13.89" disallow="tram rail_urban rail rail_electric rail_fast ship container cable_car subway aircraft wheelchair scooter drone" oneway="0"/>
    <type id="highway.secondary" priority="11" numLanes="1" speed="27.78" disallow="tram rail_urban rail rail_electric rail_fast ship container cable_car subway aircraft wheelchair scooter drone" oneway="0"/>
    <type id="highway.service" priority="1" numLanes="1" speed="5.56" allow="pedestrian delivery bicycle" oneway="0"/>

    <edge id=":1106770269_0" function="internal">
        <lane id=":1106770269_0_0" index="0" allow="pedestrian delivery bicycle" speed="3.65" length="4.67" shape="269.28,261.72 268.04,262.46 267.15,262.48 266.60,261.77 266.39,260.34"/>
    </edge>
    <edge id=":1106770310_0" function="internal">
        <lane id=":1106770310_0_0" index="0" allow="pedestrian bicycle" speed="4.70" length="4.74" width="2.00" shape="289.28,227.13 287.99,226.65 286.90,226.66 286.00,227.18 285.30,228.19"/>
    </edge>
    <edge id=":1106770310_1" function="internal">
        <lane id=":1106770310_1_0" index="0" allow="pedestrian bicycle" speed="5.56" length="9.56" width="2.00" shape="289.28,227.13 286.77,225.82 285.01,224.99 283.20,224.27 280.53,223.32"/>
    </edge>
    <edge id=":1106770310_2" function="internal">
        <lane id=":1106770310_2_0" index="0" allow="pedestrian bicycle" speed="5.56" length="7.88" width="2.00" shape="289.28,227.13 286.91,225.67 285.40,224.22 284.74,222.79 284.94,221.37"/>
    </edge>
    <edge id=":1106770310_3" function="internal">
        <lane id=":1106770310_3_0" index="0" allow="pedestrian bicycle" speed="2.89" length="2.92" width="2.00" shape="289.28,227.13 288.85,226.34 288.86,225.78 289.32,225.45 290.21,225.36"/>
    </edge>
    <edge id=":1106770310_4" function="internal">
        <lane id=":1106770310_4_0" index="0" allow="pedestrian bicycle" speed="4.63" length="3.84" width="2.00" shape="287.87,222.68 287.82,223.28 288.19,223.93 288.99,224.63 290.21,225.36"/>
    </edge>
    <edge id=":1106770310_5" function="internal">
        <lane id=":1106770310_5_0" index="0" allow="pedestrian delivery bicycle" speed="5.56" length="6.08" shape="287.87,222.68 285.30,228.19"/>
    </edge>
    <edge id=":1106770310_6" function="internal">
        <lane id=":1106770310_6_0" index="0" allow="pedestrian bicycle" speed="5.56" length="8.02" width="2.00" shape="287.87,222.68 286.94,223.76 285.41,224.23 283.27,224.09 280.53,223.32"/>
    </edge>
    <edge id=":1106770310_7" function="internal">
        <lane id=":1106770310_7_0" index="0" allow="pedestrian delivery bicycle" speed="3.65" length="4.67" shape="287.87,222.68 286.65,223.45 285.75,223.49 285.18,222.80 284.94,221.37"/>
    </edge>
    <edge id=":1106770310_8" function="internal">
        <lane id=":1106770310_8_0" index="0" allow="pedestrian bicycle" speed="4.56" length="4.03" width="2.00" shape="281.19,221.44 282.63,221.86 283.74,221.99 284.51,221.83 284.94,221.37"/>
    </edge>
    <edge id=":1106770310_9" function="internal">
        <lane id=":1106770310_9_0" index="0" allow="pedestrian bicycle" speed="5.56" length="9.85" width="2.00" shape="281.19,221.44 283.95,222.42 285.81,223.15 287.62,224.01 290.21,225.36"/>
    </edge>
    <edge id=":1106770310_10" function="internal">
        <lane id=":1106770310_10_0" index="0" allow="pedestrian bicycle" speed="5.56" length="9.18" width="2.00" shape="281.19,221.44 283.80,222.69 285.36,224.23 285.86,226.06 285.30,228.19"/>
    </edge>
    <edge id=":1106770310_11" function="internal">
        <lane id=":1106770310_11_0" index="0" allow="pedestrian bicycle" speed="2.89" length="2.92" width="2.00" shape="281.19,221.44 281.74,222.16 281.81,222.71 281.40,223.10 280.53,223.32"/>
    </edge>
    <edge id=":1106770310_12" function="internal">
        <lane id=":1106770310_12_0" index="0" allow="pedestrian bicycle" speed="4.73" length="4.62" width="2.00" shape="282.41,226.81 282.73,225.68 282.52,224.73 281.79,223.94 280.53,223.32"/>
    </edge>
    <edge id=":1106770310_13" function="internal">
        <lane id=":1106770310_13_0" index="0" allow="pedestrian delivery bicycle" speed="5.56" length="5.99" shape="282.41,226.81 284.94,221.37"/>
    </edge>
    <edge id=":1106770310_14" function="internal">
        <lane id=":1106770310_14_0" index="0" allow="pedestrian bicycle" speed="5.56" length="9.08" width="2.00" shape="282.41,226.81 283.69,225.05 285.42,224.23 287.59,224.33 290.21,225.36"/>
    </edge>
    <edge id=":1106770310_15" function="internal">
        <lane id=":1106770310_15_0" index="0" allow="pedestrian delivery bicycle" speed="3.65" length="4.67" shape="282.41,226.81 283.65,226.07 284.54,226.05 285.09,226.76 285.30,228.19"/>
    </edge>
    <edge id=":1106770324_0" function="internal">
        <lane id=":1106770324_0_0" index="0" allow="pedestrian bicycle" speed="5.56" length="6.60" width="2.00" shape="226.80,216.30 224.97,215.60 223.69,215.17 222.40,214.82 220.49,214.37"/>
    </edge>
    <edge id=":1106770324_1" function="internal">
        <lane id=":1106770324_1_0" index="0" allow="bicycle" speed="5.56" length="7.11" width="2.00" shape="226.80,216.30 225.21,215.39 224.21,214.13 223.77,212.50 223.92,210.52"/>
    </edge>
    <edge id=":1106770324_2" function="internal">
        <lane id=":1106770324_2_0" index="0" allow="pedestrian bicycle" speed="2.89" length="2.92" width="2.00" shape="226.80,216.30 226.27,215.56 226.22,215.01 226.63,214.63 227.51,214.43"/>
    </edge>
    <edge id=":1106770324_3" function="internal">
        <lane id=":1106770324_3_0" index="0" allow="bicycle" speed="4.84" length="4.27" width="2.00" shape="225.88,210.91 225.78,212.13 226.02,213.13 226.60,213.90 227.51,214.43"/>
    </edge>
    <edge id=":1106770324_4" function="internal">
        <lane id=":1106770324_4_0" index="0" allow="bicycle" speed="5.56" length="7.36" width="2.00" shape="225.88,210.91 225.20,212.82 224.08,214.03 222.51,214.55 220.49,214.37"/>
    </edge>
    <edge id=":1106770324_5" function="internal">
        <lane id=":1106770324_5_0" index="0" allow="bicycle" speed="2.89" length="2.92" width="2.00" shape="225.88,210.91 225.24,211.55 224.70,211.69 224.26,211.35 223.92,210.52"/>
    </edge>
    <edge id=":1106770324_6" function="internal">
        <lane id=":1106770324_6_0" index="0" allow="bicycle" speed="4.39" length="4.05" width="2.00" shape="220.95,212.42 222.06,212.52 222.93,212.24 223.55,211.57 223.92,210.52"/>
    </edge>
    <edge id=":1106770324_7" function="internal">
        <lane id=":1106770324_7_0" index="0" allow="pedestrian bicycle" speed="5.56" length="6.87" width="2.00" shape="220.95,212.42 222.94,212.89 224.29,213.26 225.61,213.70 227.51,214.43"/>
    </edge>
    <edge id=":1106770324_8" function="internal">
        <lane id=":1106770324_8_0" index="0" allow="pedestrian bicycle" speed="2.89" length="2.92" width="2.00" shape="220.95,212.42 221.57,213.08 221.70,213.62 221.34,214.05 220.49,214.37"/>
    </edge>
    <edge id=":1106770327_0" function="internal">
        <lane id=":1106770327_0_0" index="0" allow="pedestrian bicycle" speed="2.89" length="2.92" width="2.00" shape="652.59,507.99 652.86,508.85 652.74,509.39 652.23,509.63 651.33,509.55"/>
    </edge>
    <edge id=":1997090076_0" function="internal">
        <lane id=":1997090076_0_0" index="0" allow="pedestrian bicycle" speed="8.29" length="6.96" width="2.00" shape="200.15,215.31 199.60,214.12 198.58,212.96 197.09,211.84 195.12,210.75"/>
    </edge>
    <edge id=":1997090076_1" function="internal">
        <lane id=":1997090076_1_0" index="0" disallow="tram rail_urban rail rail_electric rail_fast ship container cable_car subway aircraft wheelchair scooter drone" speed="13.89" length="7.29" shape="200.15,215.31 199.58,213.22 199.12,211.81 198.60,210.42 197.83,208.40"/>
    </edge>
    <edge id=":1997090076_2" function="internal">
        <lane id=":1997090076_2_0" index="0" allow="pedestrian bicycle" speed="7.24" length="5.78" width="2.00" shape="200.15,215.31 199.83,213.60 199.82,212.11 200.11,210.83 200.72,209.75"/>
    </edge>
    <edge id=":1997090076_3" function="internal">
        <lane id=":1997090076_3_0" index="0" allow="pedestrian bicycle" speed="5.56" length="7.71" width="2.00" shape="202.29,210.99 201.15,211.86 199.57,212.11 197.56,211.74 195.12,210.75"/>
    </edge>
    <edge id=":1997090076_4" function="internal">
        <lane id=":1997090076_4_0" index="0" allow="pedestrian bicycle" speed="4.78" length="6.77" width="2.00" shape="202.29,210.99 201.13,211.95 199.99,211.84 198.89,210.66 197.83,208.40"/>
    </edge>
    <edge id=":1997090076_5" function="internal">
        <lane id=":1997090076_5_0" index="0" allow="pedestrian bicycle" speed="2.89" length="2.92" width="2.00" shape="202.29,210.99 201.44,211.27 200.89,211.15 200.65,210.65 200.72,209.75"/>
    </edge>
    <edge id=":2532140409_0" function="internal">
        <lane id=":2532140409_0_0" index="0" disallow="tram rail_urban rail rail_electric rail_fast ship container cable_car subway aircraft wheelchair scooter drone" speed="13.89" length="7.95" shape="212.06,219.24 209.35,226.71"/>
    </edge>
    <edge id=":2532140409_1" function="internal">
        <lane id=":2532140409_1_0" index="0" disallow="tram rail_urban rail rail_electric rail_fast ship container cable_car subway aircraft wheelchair scooter drone" speed="13.89" length="9.18" shape="200.00,224.51 200.63,221.86 200.92,219.99 200.80,218.13 200.20,215.50"/>
    </edge>
    <edge id=":2532140409_2" function="internal">
        <lane id=":2532140409_2_0" index="0" disallow="tram rail_urban rail rail_electric rail_fast ship container cable_car subway aircraft wheelchair scooter drone" speed="13.89" length="9.40" shape="200.00,224.51 201.19,222.14 202.87,220.96 204.60,219.79 205.92,217.45"/>
        <lane id=":2532140409_2_1" index="1" disallow="tram rail_urban rail rail_electric rail_fast ship container cable_car subway aircraft wheelchair scooter drone" speed="13.89" length="9.40" shape="203.12,225.24 204.30,222.92 205.97,221.77 207.68,220.63 208.99,218.34"/>
    </edge>
    <edge id=":2532140409_4" function="internal">
        <lane id=":2532140409_4_0" index="0" disallow="tram rail_urban rail rail_electric rail_fast ship container cable_car subway aircraft wheelchair scooter drone" speed="3.65" length="1.44" shape="206.23,225.97 207.29,224.99"/>
    </edge>
    <edge id=":2532140409_5" function="internal">
        <lane id=":2532140409_5_0" index="0" disallow="tram rail_urban rail rail_electric rail_fast ship container cable_car subway aircraft wheelchair scooter drone" speed="3.65" length="3.23" shape="207.29,224.99 208.16,224.78 208.85,225.35 209.35,226.71"/>
    </edge>
    <edge id=":2532140414_0" function="internal">
        <lane id=":2532140414_0_0" index="0" disallow="tram rail_urban rail rail_electric rail_fast ship container cable_car subway aircraft wheelchair scooter drone" speed="9.30" length="2.37" shape="228.88,173.33 226.51,173.19"/>
    </edge>
    <edge id=":2532140414_1" function="internal">
        <lane id=":2532140414_1_0" index="0" disallow="tram rail_urban rail rail_electric rail_fast ship container cable_car subway aircraft wheelchair scooter drone" speed="13.89" length="9.32" shape="228.88,173.33 228.01,175.81 226.51,177.19 224.98,178.57 224.00,181.04"/>
        <lane id=":2532140414_1_1" index="1" disallow="tram rail_urban rail rail_electric rail_fast ship container cable_car subway aircraft wheelchair scooter drone" speed="13.89" length="9.32" shape="225.69,173.00 224.83,175.44 223.33,176.79 221.81,178.14 220.84,180.57"/>
    </edge>
    <edge id=":2532140414_3" function="internal">
        <lane id=":2532140414_3_0" index="0" disallow="tram rail_urban rail rail_electric rail_fast ship container cable_car subway aircraft wheelchair scooter drone" speed="3.65" length="1.44" shape="222.51,172.66 221.59,173.77"/>
    </edge>
    <edge id=":2532140414_5" function="internal">
        <lane id=":2532140414_5_0" index="0" disallow="tram rail_urban rail rail_electric rail_fast ship container cable_car subway aircraft wheelchair scooter drone" speed="3.65" length="3.23" shape="221.59,173.77 220.75,174.08 220.00,173.60 219.33,172.32"/>
    </edge>
    <edge id=":2532140414_4" function="internal">
        <lane id=":2532140414_4_0" index="0" disallow="tram rail_urban rail rail_electric rail_fast ship container cable_car subway aircraft wheelchair scooter drone" speed="13.89" length="7.96" shape="217.67,180.11 219.33,172.32"/>
    </edge>
    <edge id=":2532140418_0" function="internal">
        <lane id=":2532140418_0_0" index="0" allow="pedestrian bicycle" speed="4.36" length="4.84" width="2.00" shape="234.75,185.67 233.50,186.49 232.92,187.39 233.01,188.37 233.77,189.42"/>
    </edge>
    <edge id=":2532140418_1" function="internal">
        <lane id=":2532140418_1_0" index="0" allow="pedestrian bicycle" speed="5.56" length="6.29" width="2.00" shape="234.75,185.67 233.09,186.52 231.92,187.08 230.69,187.43 228.86,187.66"/>
    </edge>
    <edge id=":2532140418_2" function="internal">
        <lane id=":2532140418_2_0" index="0" allow="pedestrian bicycle" speed="2.89" length="2.92" width="2.00" shape="234.75,185.67 233.86,185.56 233.41,185.22 233.42,184.66 233.87,183.88"/>
    </edge>
    <edge id=":2532140418_3" function="internal">
        <lane id=":2532140418_3_0" index="0" allow="pedestrian bicycle" speed="7.52" length="13.73" width="2.00" shape="226.57,173.38 228.51,178.59 230.37,182.07 232.16,183.84 233.87,183.88"/>
    </edge>
    <edge id=":2532140418_4" function="internal">
        <lane id=":2532140418_4_0" index="0" disallow="tram rail_urban rail rail_electric rail_fast ship container cable_car subway aircraft wheelchair scooter drone" speed="13.89" length="17.71" shape="226.57,173.38 227.85,177.39 229.43,181.85 231.37,186.09 233.77,189.42"/>
    </edge>
    <edge id=":2532140418_5" function="internal">
        <lane id=":2532140418_5_0" index="0" allow="pedestrian bicycle" speed="7.61" length="14.91" width="2.00" shape="226.57,173.38 228.43,179.55 229.44,183.99 229.58,186.69 228.86,187.66"/>
    </edge>
    <edge id=":2532140418_6" function="internal">
        <lane id=":2532140418_6_0" index="0" allow="pedestrian bicycle" speed="5.56" length="5.55" width="2.00" shape="228.68,185.67 230.30,185.46 231.38,185.14 232.40,184.63 233.87,183.88"/>
    </edge>
    <edge id=":2532140418_7" function="internal">
        <lane id=":2532140418_7_0" index="0" allow="pedestrian bicycle" speed="7.74" length="6.41" width="2.00" shape="228.68,185.67 229.46,185.86 230.58,186.55 232.01,187.74 233.77,189.42"/>
    </edge>
    <edge id=":2532140418_8" function="internal">
        <lane id=":2532140418_8_0" index="0" allow="pedestrian bicycle" speed="2.89" length="2.92" width="2.00" shape="228.68,185.67 229.47,186.10 229.76,186.58 229.56,187.10 228.86,187.66"/>
    </edge>
    <edge id=":2532140420_0" function="internal">
        <lane id=":2532140420_0_0" index="0" disallow="tram rail_urban rail rail_electric rail_fast ship container cable_car subway aircraft wheelchair scooter drone" speed="13.89" length="45.14" shape="283.93,218.47 276.48,216.41 263.91,213.46 250.39,210.44 240.07,208.15"/>
        <lane id=":2532140420_0_1" index="1" disallow="tram rail_urban rail rail_electric rail_fast ship container cable_car subway aircraft wheelchair scooter drone" speed="13.89" length="45.14" shape="283.93,218.47 276.59,215.92 264.26,211.90 250.98,207.81 240.78,205.03"/>
    </edge>
    <edge id=":2532140420_2" function="internal">
        <lane id=":2532140420_2_0" index="0" disallow="tram rail_urban rail rail_electric rail_fast ship container cable_car subway aircraft wheelchair scooter drone" speed="3.65" length="1.44" shape="283.93,218.47 283.10,217.29"/>
    </edge>
    <edge id=":2532140420_6" function="internal">
        <lane id=":2532140420_6_0" index="0" disallow="tram rail_urban rail rail_electric rail_fast ship container cable_car subway aircraft wheelchair scooter drone" speed="3.65" length="3.23" shape="283.10,217.29 283.01,216.40 283.67,215.80 285.08,215.48"/>
    </edge>
    <edge id=":2532140420_3" function="internal">
        <lane id=":2532140420_3_0" index="0" disallow="tram rail_urban rail rail_electric rail_fast ship container cable_car subway aircraft wheelchair scooter drone" speed="13.89" length="45.59" shape="243.03,197.88 250.78,201.41 263.94,206.92 277.15,212.32 285.08,215.48"/>
    </edge>
    <edge id=":2532140420_4" function="internal">
        <lane id=":2532140420_4_0" index="0" disallow="tram rail_urban rail rail_electric rail_fast ship container cable_car subway aircraft wheelchair scooter drone" speed="13.89" length="45.67" shape="241.48,201.91 249.70,204.24 263.36,208.44 276.99,212.76 285.08,215.48"/>
    </edge>
    <edge id=":2532140420_5" function="internal">
        <lane id=":2532140420_5_0" index="0" disallow="tram rail_urban rail rail_electric rail_fast ship container cable_car subway aircraft wheelchair scooter drone" speed="3.65" length="1.44" shape="241.48,201.91 242.48,202.96"/>
    </edge>
    <edge id=":2532140420_7" function="internal">
        <lane id=":2532140420_7_0" index="0" disallow="tram rail_urban rail rail_electric rail_fast ship container cable_car subway aircraft wheelchair scooter drone" speed="3.65" length="3.23" shape="242.48,202.96 242.69,203.82 242.13,204.52 240.78,205.03"/>
    </edge>
    <edge id=":2559495611_0" function="internal">
        <lane id=":2559495611_0_0" index="0" allow="pedestrian bicycle" speed="4.85" length="3.90" width="2.00" shape="239.68,185.67 238.89,185.00 238.04,184.66 237.12,184.66 236.14,184.99"/>
    </edge>
    <edge id=":2559495611_1" function="internal">
        <lane id=":2559495611_1_0" index="0" allow="bicycle" speed="5.56" length="6.49" width="2.00" shape="239.68,185.67 238.43,184.23 237.70,183.11 237.26,181.86 236.88,179.98"/>
    </edge>
    <edge id=":2559495611_2" function="internal">
        <lane id=":2559495611_2_0" index="0" allow="pedestrian bicycle" speed="2.89" length="2.92" width="2.00" shape="239.68,185.67 239.55,184.78 239.75,184.26 240.29,184.11 241.16,184.34"/>
    </edge>
    <edge id=":2559495611_3" function="internal">
        <lane id=":2559495611_3_0" index="0" allow="bicycle" speed="5.56" length="5.38" width="2.00" shape="238.84,179.62 239.16,181.17 239.52,182.21 240.13,183.14 241.16,184.34"/>
    </edge>
    <edge id=":2559495611_4" function="internal">
        <lane id=":2559495611_4_0" index="0" allow="bicycle" speed="5.56" length="6.52" width="2.00" shape="238.84,179.62 238.93,181.35 238.51,182.82 237.58,184.03 236.14,184.99"/>
    </edge>
    <edge id=":2559495611_5" function="internal">
        <lane id=":2559495611_5_0" index="0" allow="bicycle" speed="2.89" length="2.92" width="2.00" shape="238.84,179.62 238.49,180.45 238.04,180.78 237.50,180.63 236.88,179.98"/>
    </edge>
    <edge id=":2559495611_6" function="internal">
        <lane id=":2559495611_6_0" index="0" allow="bicycle" speed="4.85" length="3.90" width="2.00" shape="235.26,183.20 236.12,182.62 236.68,181.90 236.93,181.01 236.88,179.98"/>
    </edge>
    <edge id=":2559495611_7" function="internal">
        <lane id=":2559495611_7_0" index="0" allow="pedestrian bicycle" speed="5.56" length="6.52" width="2.00" shape="235.26,183.20 236.90,182.64 238.43,182.65 239.85,183.22 241.16,184.34"/>
    </edge>
    <edge id=":2559495611_8" function="internal">
        <lane id=":2559495611_8_0" index="0" allow="pedestrian bicycle" speed="2.89" length="2.92" width="2.00" shape="235.26,183.20 236.15,183.31 236.60,183.65 236.59,184.21 236.14,184.99"/>
    </edge>
    <edge id=":2592704231_0" function="internal">
        <lane id=":2592704231_0_0" index="0" disallow="tram rail_urban rail rail_electric rail_fast ship container cable_car subway aircraft wheelchair scooter drone" speed="3.65" length="4.67" shape="16.65,17.26 15.93,16.01 15.92,15.12 16.63,14.57 18.06,14.39"/>
    </edge>
    <edge id=":2681213635_0" function="internal">
        <lane id=":2681213635_0_0" index="0" allow="pedestrian delivery bicycle" speed="3.65" length="4.67" shape="37.93,326.39 36.57,325.93 35.98,325.26 36.16,324.38 37.11,323.30"/>
    </edge>
    <edge id=":282192637_0" function="internal">
        <lane id=":282192637_0_0" index="0" disallow="tram rail_urban rail rail_electric rail_fast ship container cable_car subway aircraft wheelchair scooter drone" speed="3.65" length="4.67" shape="-0.14,239.25 -1.27,238.34 -1.59,237.51 -1.12,236.75 0.14,236.06"/>
    </edge>
    <edge id=":287263688_0" function="internal">
        <lane id=":287263688_0_0" index="0" disallow="tram rail_urban rail rail_electric rail_fast ship container cable_car subway aircraft wheelchair scooter drone" speed="3.65" length="4.67" shape="378.93,270.66 379.50,271.98 379.40,272.87 378.63,273.32 377.19,273.34"/>
    </edge>
    <edge id=":32668258_0" function="internal">
        <lane id=":32668258_0_0" index="0" allow="pedestrian bicycle" speed="4.99" length="5.03" width="2.00" shape="217.03,213.55 215.63,213.41 214.51,213.71 213.67,214.47 213.10,215.67"/>
    </edge>
    <edge id=":32668258_1" function="internal">
        <lane id=":32668258_1_0" index="0" allow="pedestrian bicycle" speed="5.56" length="12.32" width="2.00" shape="217.03,213.55 205.04,210.72"/>
    </edge>
    <edge id=":32668258_2" function="internal">
        <lane id=":32668258_2_0" index="0" allow="pedestrian bicycle" speed="6.13" length="1.17" width="2.00" shape="217.03,213.55 215.92,213.18"/>
    </edge>
    <edge id=":32668258_3" function="internal">
        <lane id=":32668258_3_0" index="0" allow="pedestrian bicycle" speed="2.89" length="2.39" width="2.00" shape="217.03,213.55 216.41,212.89 216.28,212.34 216.64,211.91 216.99,211.79"/>
    </edge>
    <edge id=":32668258_15" function="internal">
        <lane id=":32668258_15_0" index="0" allow="pedestrian bicycle" speed="6.13" length="7.12" width="2.00" shape="215.92,213.18 214.40,212.68 212.65,211.52 211.78,210.07 211.79,208.33"/>
    </edge>
    <edge id=":32668258_16" function="internal">
        <lane id=":32668258_16_0" index="0" allow="pedestrian bicycle" speed="2.89" length="0.54" width="2.00" shape="216.99,211.79 217.49,211.60"/>
    </edge>
    <edge id=":32668258_4" function="internal">
        <lane id=":32668258_4_0" index="0" allow="pedestrian bicycle" speed="4.63" length="4.05" width="2.00" shape="214.90,209.07 214.90,209.91 215.33,210.61 216.19,211.17 217.49,211.60"/>
    </edge>
    <edge id=":32668258_5" function="internal">
        <lane id=":32668258_5_0" index="0" disallow="tram rail_urban rail rail_electric rail_fast ship container cable_car subway aircraft wheelchair scooter drone" speed="13.89" length="6.84" shape="214.90,209.07 213.10,215.67"/>
    </edge>
    <edge id=":32668258_6" function="internal">
        <lane id=":32668258_6_0" index="0" allow="pedestrian bicycle" speed="7.09" length="0.89" width="2.00" shape="214.90,209.07 214.43,209.83"/>
    </edge>
    <edge id=":32668258_17" function="internal">
        <lane id=":32668258_17_0" index="0" allow="pedestrian bicycle" speed="7.09" length="10.02" width="2.00" shape="214.43,209.83 213.95,210.58 211.99,211.36 209.02,211.41 205.04,210.72"/>
    </edge>
    <edge id=":32668258_7" function="internal">
        <lane id=":32668258_7_0" index="0" allow="pedestrian bicycle" speed="4.34" length="3.82" width="2.00" shape="205.49,208.78 206.72,208.94 207.66,208.80 208.31,208.35 208.68,207.59"/>
    </edge>
    <edge id=":32668258_8" function="internal">
        <lane id=":32668258_8_0" index="0" allow="pedestrian bicycle" speed="5.56" length="12.32" width="2.00" shape="205.49,208.78 217.49,211.60"/>
    </edge>
    <edge id=":32668258_9" function="internal">
        <lane id=":32668258_9_0" index="0" allow="pedestrian bicycle" speed="7.01" length="1.35" width="2.00" shape="205.49,208.78 206.78,209.19"/>
    </edge>
    <edge id=":32668258_10" function="internal">
        <lane id=":32668258_10_0" index="0" allow="pedestrian bicycle" speed="2.89" length="2.39" width="2.00" shape="205.49,208.78 206.11,209.44 206.24,209.98 205.88,210.41 205.53,210.54"/>
    </edge>
    <edge id=":32668258_18" function="internal">
        <lane id=":32668258_18_0" index="0" allow="pedestrian bicycle" speed="7.01" length="10.18" width="2.00" shape="206.78,209.19 209.36,210.00 211.91,211.56 213.16,213.45 213.10,215.67"/>
    </edge>
    <edge id=":32668258_19" function="internal">
        <lane id=":32668258_19_0" index="0" allow="pedestrian bicycle" speed="2.89" length="0.53" width="2.00" shape="205.53,210.54 205.04,210.72"/>
    </edge>
    <edge id=":32668258_11" function="internal">
        <lane id=":32668258_11_0" index="0" allow="pedestrian bicycle" speed="4.63" length="4.24" width="2.00" shape="206.97,213.84 207.13,212.71 206.86,211.82 206.16,211.15 205.04,210.72"/>
    </edge>
    <edge id=":32668258_12" function="internal">
        <lane id=":32668258_12_0" index="0" disallow="tram rail_urban rail rail_electric rail_fast ship container cable_car subway aircraft wheelchair scooter drone" speed="13.89" length="6.57" shape="206.97,213.84 208.68,207.59"/>
        <lane id=":32668258_12_1" index="1" disallow="tram rail_urban rail rail_electric rail_fast ship container cable_car subway aircraft wheelchair scooter drone" speed="13.89" length="6.57" shape="210.04,214.76 211.79,208.33"/>
    </edge>
    <edge id=":32668258_14" function="internal">
        <lane id=":32668258_14_0" index="0" allow="pedestrian bicycle" speed="6.66" length="2.16" width="2.00" shape="210.04,214.76 211.02,212.84"/>
    </edge>
    <edge id=":32668258_20" function="internal">
        <lane id=":32668258_20_0" index="0" allow="pedestrian bicycle" speed="6.66" length="6.92" width="2.00" shape="211.02,212.84 212.59,211.67 214.74,211.26 217.49,211.60"/>
    </edge>
    <edge id=":32668259_0" function="internal">
        <lane id=":32668259_0_0" index="0" disallow="tram rail_urban rail rail_electric rail_fast ship container cable_car subway aircraft wheelchair scooter drone" speed="7.45" length="10.80" shape="224.03,204.96 220.47,204.95 217.77,205.59 215.93,206.90 214.95,208.88"/>
    </edge>
    <edge id=":32668259_1" function="internal">
        <lane id=":32668259_1_0" index="0" disallow="tram rail_urban rail rail_electric rail_fast ship container cable_car subway aircraft wheelchair scooter drone" speed="13.89" length="19.43" shape="224.03,204.96 217.78,203.83 213.04,202.07 209.20,200.30 205.60,199.10"/>
    </edge>
    <edge id=":32668259_2" function="internal">
        <lane id=":32668259_2_0" index="0" disallow="tram rail_urban rail rail_electric rail_fast ship container cable_car subway aircraft wheelchair scooter drone" speed="8.56" length="17.86" shape="224.31,201.77 219.79,200.62 216.91,198.10 215.68,194.20 216.10,188.94"/>
    </edge>
    <edge id=":32668259_3" function="internal">
        <lane id=":32668259_3_0" index="0" disallow="tram rail_urban rail rail_electric rail_fast ship container cable_car subway aircraft wheelchair scooter drone" speed="3.65" length="4.67" shape="224.31,201.77 223.18,200.87 222.85,200.04 223.32,199.28 224.58,198.59"/>
    </edge>
    <edge id=":32668259_4" function="internal">
        <lane id=":32668259_4_0" index="0" disallow="tram rail_urban rail rail_electric rail_fast ship container cable_car subway aircraft wheelchair scooter drone" speed="13.89" length="20.12" shape="222.36,190.24 220.51,196.60 218.33,201.41 216.31,205.29 214.95,208.88"/>
    </edge>
    <edge id=":32668259_5" function="internal">
        <lane id=":32668259_5_0" index="0" disallow="tram rail_urban rail rail_electric rail_fast ship container cable_car subway aircraft wheelchair scooter drone" speed="9.20" length="8.10" shape="219.23,189.59 217.47,194.57 215.61,196.68"/>
    </edge>
    <edge id=":32668259_6" function="internal">