<?xml version="1.0" encoding="UTF-8"?>

<!-- generated on 2024-09-03 01:38:12.820455 by randomTrips.py UNKNOWN
<configuration>
    <net-file value="train_files/intersection/middle/outputs/map(82)_dict/map(82)/map(82).net.xml"/>
    <output-trip-file value="train_files/intersection/middle/outputs/map(82)_dict/map(82)/map(82).trips.xml"/>
    <fringe-factor value="max"/>
    <validate value="True"/>
    <period value="1.2"/>
</configuration>
-->

<!-- generated on 2024-09-03 01:38:12 by Eclipse SUMO duarouter Version 1.20.0
<configuration xmlns:xsi="http://www.w3.org/2001/XMLSchema-instance" xsi:noNamespaceSchemaLocation="http://sumo.dlr.de/xsd/duarouterConfiguration.xsd">

    <input>
        <net-file value="train_files/intersection/middle/outputs/map(82)_dict/map(82)/map(82).net.xml"/>
        <route-files value="train_files/intersection/middle/outputs/map(82)_dict/map(82)/map(82).trips.xml"/>
    </input>

    <output>
        <output-file value="train_files/intersection/middle/outputs/map(82)_dict/map(82)/map(82).trips.xml.tmp"/>
        <alternatives-output value="NUL"/>
        <write-trips value="true"/>
    </output>

    <time>
        <begin value="0"/>
        <end value="3600"/>
    </time>

    <report>
        <no-warnings value="true"/>
        <ignore-errors value="true"/>
        <no-step-log value="true"/>
    </report>

</configuration>
-->

<routes xmlns:xsi="http://www.w3.org/2001/XMLSchema-instance" xsi:noNamespaceSchemaLocation="http://sumo.dlr.de/xsd/routes_file.xsd">
    <trip id="0" depart="0.00" from="253335412" to="-253335412"/>
    <trip id="1" depart="1.20" from="-603708716" to="-28444031"/>
    <trip id="2" depart="2.40" from="28444031" to="603708716"/>
    <trip id="3" depart="3.60" from="568424672" to="-253335412"/>
    <trip id="4" depart="4.80" from="-8099278#1" to="-253335412"/>
    <trip id="7" depart="8.40" from="253335412" to="568424675"/>
    <trip id="10" depart="12.00" from="28444031" to="603708716"/>
    <trip id="11" depart="13.20" from="-8099278#1" to="-253335412"/>
    <trip id="12" depart="14.40" from="568424672" to="-568424672"/>
    <trip id="13" depart="15.60" from="-568424675" to="-253335412"/>
    <trip id="14" depart="16.80" from="568424672" to="568424675"/>
    <trip id="15" depart="18.00" from="28444031" to="603708716"/>
    <trip id="16" depart="19.20" from="253335412" to="8099278#1"/>
    <trip id="17" depart="20.40" from="-8099278#1" to="568424675"/>
    <trip id="19" depart="22.80" from="568424672" to="568424675"/>
    <trip id="21" depart="25.20" from="-603708716" to="-28444031"/>
    <trip id="24" depart="28.80" from="253335412" to="-568424672"/>
    <trip id="27" depart="32.40" from="253335412" to="568424675"/>
    <trip id="28" depart="33.60" from="-603708716" to="603708716"/>
    <trip id="29" depart="34.80" from="-568424675" to="-568424672"/>
    <trip id="30" depart="36.00" from="568424672" to="568424675"/>
    <trip id="34" depart="40.80" from="-603708716" to="-28444031"/>
    <trip id="37" depart="44.40" from="253335412" to="-568424672"/>
    <trip id="38" depart="45.60" from="568424672" to="-568424672"/>
    <trip id="39" depart="46.80" from="-603708716" to="-28444031"/>
    <trip id="41" depart="49.20" from="253335412" to="8099278#1"/>
    <trip id="43" depart="51.60" from="568424672" to="568424675"/>
    <trip id="44" depart="52.80" from="-568424675" to="-253335412"/>
    <trip id="45" depart="54.00" from="-568424675" to="568424675"/>
    <trip id="47" depart="56.40" from="-568424675" to="-568424672"/>
    <trip id="48" depart="57.60" from="568424672" to="568424675"/>
    <trip id="49" depart="58.80" from="568424672" to="8099278#1"/>
    <trip id="53" depart="63.60" from="-568424675" to="-568424672"/>
    <trip id="54" depart="64.80" from="-8099278#1" to="8099278#1"/>
    <trip id="57" depart="68.40" from="568424672" to="8099278#1"/>
    <trip id="59" depart="70.80" from="253335412" to="-253335412"/>
    <trip id="63" depart="75.60" from="-568424675" to="8099278#1"/>
    <trip id="66" depart="79.20" from="568424672" to="8099278#1"/>
    <trip id="67" depart="80.40" from="-568424675" to="-568424672"/>
    <trip id="70" depart="84.00" from="-8099278#1" to="568424675"/>
    <trip id="74" depart="88.80" from="-603708716" to="-28444031"/>
    <trip id="75" depart="90.00" from="568424672" to="568424675"/>
    <trip id="76" depart="91.20" from="-8099278#1" to="568424675"/>
    <trip id="78" depart="93.60" from="-8099278#1" to="568424675"/>
    <trip id="79" depart="94.80" from="-603708716" to="-28444031"/>
    <trip id="80" depart="96.00" from="-568424675" to="568424675"/>
    <trip id="82" depart="98.40" from="568424672" to="-253335412"/>
    <trip id="83" depart="99.60" from="-603708716" to="603708716"/>
    <trip id="85" depart="102.00" from="568424672" to="568424675"/>
    <trip id="87" depart="104.40" from="28444031" to="-28444031"/>
    <trip id="88" depart="105.60" from="-568424675" to="-568424672"/>
    <trip id="89" depart="106.80" from="-8099278#1" to="-568424672"/>
    <trip id="90" depart="108.00" from="28444031" to="603708716"/>
    <trip id="91" depart="109.20" from="568424672" to="-253335412"/>
    <trip id="92" depart="110.40" from="-8099278#1" to="-568424672"/>
    <trip id="97" depart="116.40" from="-8099278#1" to="8099278#1"/>
    <trip id="98" depart="117.60" from="253335412" to="-253335412"/>
    <trip id="99" depart="118.80" from="568424672" to="8099278#1"/>
    <trip id="100" depart="120.00" from="568424672" to="8099278#1"/>
    <trip id="101" depart="121.20" from="568424672" to="-253335412"/>
    <trip id="103" depart="123.60" from="-8099278#1" to="-253335412"/>
    <trip id="104" depart="124.80" from="-8099278#1" to="8099278#1"/>
    <trip id="105" depart="126.00" from="-603708716" to="603708716"/>
    <trip id="106" depart="127.20" from="-8099278#1" to="-568424672"/>
    <trip id="107" depart="128.40" from="568424672" to="8099278#1"/>
    <trip id="110" depart="132.00" from="568424672" to="568424675"/>
    <trip id="112" depart="134.40" from="-568424675" to="568424675"/>
    <trip id="113" depart="135.60" from="253335412" to="8099278#1"/>
    <trip id="114" depart="136.80" from="-568424675" to="8099278#1"/>
    <trip id="119" depart="142.80" from="253335412" to="568424675"/>
    <trip id="120" depart="144.00" from="-8099278#1" to="568424675"/>
    <trip id="121" depart="145.20" from="253335412" to="8099278#1"/>
    <trip id="122" depart="146.40" from="-603708716" to="603708716"/>
    <trip id="124" depart="148.80" from="28444031" to="-28444031"/>
    <trip id="125" depart="150.00" from="-603708716" to="603708716"/>
    <trip id="126" depart="151.20" from="-568424675" to="-568424672"/>
    <trip id="127" depart="152.40" from="568424672" to="8099278#1"/>
    <trip id="130" depart="156.00" from="568424672" to="8099278#1"/>
    <trip id="131" depart="157.20" from="-8099278#1" to="-253335412"/>
    <trip id="133" depart="159.60" from="253335412" to="8099278#1"/>
    <trip id="134" depart="160.80" from="253335412" to="-253335412"/>
    <trip id="135" depart="162.00" from="28444031" to="-28444031"/>
    <trip id="136" depart="163.20" from="253335412" to="8099278#1"/>
    <trip id="137" depart="164.40" from="-568424675" to="-253335412"/>
    <trip id="138" depart="165.60" from="-568424675" to="568424675"/>
    <trip id="140" depart="168.00" from="28444031" to="-28444031"/>
    <trip id="142" depart="170.40" from="-8099278#1" to="8099278#1"/>
    <trip id="143" depart="171.60" from="568424672" to="-253335412"/>
    <trip id="148" depart="177.60" from="-8099278#1" to="-253335412"/>
    <trip id="149" depart="178.80" from="-568424675" to="8099278#1"/>
    <trip id="150" depart="180.00" from="568424672" to="568424675"/>
    <trip id="151" depart="181.20" from="568424672" to="568424675"/>
    <trip id="152" depart="182.40" from="-568424675" to="-253335412"/>
    <trip id="158" depart="189.60" from="-8099278#1" to="568424675"/>
    <trip id="159" depart="190.80" from="-568424675" to="8099278#1"/>
    <trip id="160" depart="192.00" from="568424672" to="8099278#1"/>
    <trip id="165" depart="198.00" from="28444031" to="-28444031"/>
    <trip id="167" depart="200.40" from="568424672" to="8099278#1"/>
    <trip id="168" depart="201.60" from="-603708716" to="603708716"/>
    <trip id="170" depart="204.00" from="28444031" to="-28444031"/>
    <trip id="174" depart="208.80" from="253335412" to="-568424672"/>
    <trip id="175" depart="210.00" from="568424672" to="568424675"/>
    <trip id="176" depart="211.20" from="568424672" to="-253335412"/>
    <trip id="179" depart="214.80" from="-568424675" to="-568424672"/>
    <trip id="180" depart="216.00" from="28444031" to="-28444031"/>
    <trip id="181" depart="217.20" from="253335412" to="568424675"/>
    <trip id="182" depart="218.40" from="-8099278#1" to="568424675"/>
    <trip id="183" depart="219.60" from="-603708716" to="603708716"/>
    <trip id="184" depart="220.80" from="-568424675" to="8099278#1"/>
    <trip id="186" depart="223.20" from="28444031" to="603708716"/>
    <trip id="187" depart="224.40" from="-8099278#1" to="-253335412"/>
    <trip id="190" depart="228.00" from="28444031" to="-28444031"/>
    <trip id="193" depart="231.60" from="-568424675" to="-568424672"/>
    <trip id="195" depart="234.00" from="568424672" to="568424675"/>
    <trip id="198" depart="237.60" from="-8099278#1" to="568424675"/>
    <trip id="199" depart="238.80" from="253335412" to="-568424672"/>
    <trip id="201" depart="241.20" from="-8099278#1" to="8099278#1"/>
    <trip id="202" depart="242.40" from="28444031" to="-28444031"/>
    <trip id="203" depart="243.60" from="-568424675" to="568424675"/>
    <trip id="204" depart="244.80" from="253335412" to="-568424672"/>
    <trip id="205" depart="246.00" from="28444031" to="603708716"/>
    <trip id="206" depart="247.20" from="28444031" to="-28444031"/>
    <trip id="209" depart="250.80" from="568424672" to="-253335412"/>
    <trip id="210" depart="252.00" from="-8099278#1" to="568424675"/>
    <trip id="211" depart="253.20" from="-603708716" to="603708716"/>
    <trip id="213" depart="255.60" from="253335412" to="-253335412"/>
    <trip id="214" depart="256.80" from="28444031" to="603708716"/>
    <trip id="215" depart="258.00" from="-568424675" to="-568424672"/>
    <trip id="217" depart="260.40" from="253335412" to="-253335412"/>
    <trip id="221" depart="265.20" from="253335412" to="8099278#1"/>
    <trip id="222" depart="266.40" from="568424672" to="568424675"/>
    <trip id="231" depart="277.20" from="-603708716" to="-28444031"/>
    <trip id="232" depart="278.40" from="253335412" to="-253335412"/>
    <trip id="233" depart="279.60" from="-603708716" to="603708716"/>
    <trip id="235" depart="282.00" from="-8099278#1" to="568424675"/>
    <trip id="237" depart="284.40" from="-8099278#1" to="8099278#1"/>
    <trip id="240" depart="288.00" from="-8099278#1" to="-253335412"/>
    <trip id="242" depart="290.40" from="568424672" to="8099278#1"/>
    <trip id="244" depart="292.80" from="253335412" to="568424675"/>
    <trip id="245" depart="294.00" from="-603708716" to="-28444031"/>
    <trip id="246" depart="295.20" from="-8099278#1" to="-253335412"/>
    <trip id="248" depart="297.60" from="-8099278#1" to="-253335412"/>
    <trip id="249" depart="298.80" from="-8099278#1" to="-253335412"/>
    <trip id="250" depart="300.00" from="253335412" to="-253335412"/>
    <trip id="251" depart="301.20" from="-8099278#1" to="568424675"/>
    <trip id="252" depart="302.40" from="-568424675" to="568424675"/>
    <trip id="253" depart="303.60" from="-568424675" to="-568424672"/>
    <trip id="254" depart="304.80" from="-568424675" to="-568424672"/>
    <trip id="255" depart="306.00" from="-603708716" to="-28444031"/>
    <trip id="257" depart="308.40" from="28444031" to="603708716"/>
    <trip id="259" depart="310.80" from="-568424675" to="568424675"/>
    <trip id="260" depart="312.00" from="568424672" to="-568424672"/>
    <trip id="264" depart="316.80" from="-568424675" to="-253335412"/>
    <trip id="267" depart="320.40" from="28444031" to="603708716"/>
    <trip id="271" depart="325.20" from="-568424675" to="-253335412"/>
    <trip id="272" depart="326.40" from="-603708716" to="603708716"/>
    <trip id="273" depart="327.60" from="568424672" to="-568424672"/>
    <trip id="277" depart="332.40" from="568424672" to="568424675"/>
    <trip id="278" depart="333.60" from="-568424675" to="8099278#1"/>
    <trip id="280" depart="336.00" from="-8099278#1" to="-568424672"/>
    <trip id="281" depart="337.20" from="253335412" to="-568424672"/>
    <trip id="283" depart="339.60" from="-568424675" to="8099278#1"/>
    <trip id="287" depart="344.40" from="-603708716" to="603708716"/>
    <trip id="288" depart="345.60" from="253335412" to="-568424672"/>
    <trip id="293" depart="351.60" from="-8099278#1" to="568424675"/>
    <trip id="294" depart="352.80" from="-8099278#1" to="-253335412"/>
    <trip id="296" depart="355.20" from="-603708716" to="603708716"/>
    <trip id="297" depart="356.40" from="-8099278#1" to="8099278#1"/>
    <trip id="298" depart="357.60" from="28444031" to="-28444031"/>
    <trip id="299" depart="358.80" from="-568424675" to="8099278#1"/>
    <trip id="305" depart="366.00" from="28444031" to="-28444031"/>
    <trip id="306" depart="367.20" from="253335412" to="-568424672"/>
    <trip id="307" depart="368.40" from="253335412" to="-568424672"/>
    <trip id="308" depart="369.60" from="28444031" to="-28444031"/>
    <trip id="309" depart="370.80" from="28444031" to="-28444031"/>
    <trip id="313" depart="375.60" from="-603708716" to="-28444031"/>
    <trip id="315" depart="378.00" from="568424672" to="568424675"/>
    <trip id="317" depart="380.40" from="-603708716" to="-28444031"/>
    <trip id="320" depart="384.00" from="568424672" to="568424675"/>
    <trip id="322" depart="386.40" from="568424672" to="-568424672"/>
    <trip id="323" depart="387.60" from="568424672" to="568424675"/>
    <trip id="324" depart="388.80" from="-8099278#1" to="-568424672"/>
    <trip id="326" depart="391.20" from="568424672" to="-568424672"/>
    <trip id="328" depart="393.60" from="-568424675" to="568424675"/>
    <trip id="329" depart="394.80" from="-568424675" to="-253335412"/>
    <trip id="331" depart="397.20" from="568424672" to="-253335412"/>
    <trip id="333" depart="399.60" from="28444031" to="-28444031"/>
    <trip id="334" depart="400.80" from="253335412" to="-568424672"/>
    <trip id="335" depart="402.00" from="-8099278#1" to="8099278#1"/>
    <trip id="337" depart="404.40" from="253335412" to="568424675"/>
    <trip id="339" depart="406.80" from="-603708716" to="-28444031"/>
    <trip id="340" depart="408.00" from="253335412" to="-253335412"/>
    <trip id="342" depart="410.40" from="-568424675" to="-568424672"/>
    <trip id="344" depart="412.80" from="-603708716" to="603708716"/>
    <trip id="348" depart="417.60" from="253335412" to="8099278#1"/>
    <trip id="349" depart="418.80" from="-8099278#1" to="568424675"/>
    <trip id="350" depart="420.00" from="253335412" to="8099278#1"/>
    <trip id="355" depart="426.00" from="28444031" to="603708716"/>
    <trip id="356" depart="427.20" from="568424672" to="568424675"/>
    <trip id="357" depart="428.40" from="-8099278#1" to="-253335412"/>
    <trip id="358" depart="429.60" from="-568424675" to="-568424672"/>
    <trip id="359" depart="430.80" from="-603708716" to="-28444031"/>
    <trip id="360" depart="432.00" from="-568424675" to="8099278#1"/>
    <trip id="361" depart="433.20" from="568424672" to="568424675"/>
    <trip id="362" depart="434.40" from="568424672" to="8099278#1"/>
    <trip id="363" depart="435.60" from="28444031" to="-28444031"/>
    <trip id="365" depart="438.00" from="-8099278#1" to="568424675"/>
    <trip id="367" depart="440.40" from="253335412" to="568424675"/>
    <trip id="368" depart="441.60" from="-8099278#1" to="-253335412"/>
    <trip id="371" depart="445.20" from="-603708716" to="603708716"/>
    <trip id="376" depart="451.20" from="-8099278#1" to="568424675"/>
    <trip id="377" depart="452.40" from="568424672" to="568424675"/>
    <trip id="378" depart="453.60" from="253335412" to="-568424672"/>
    <trip id="381" depart="457.20" from="28444031" to="-28444031"/>
    <trip id="382" depart="458.40" from="253335412" to="8099278#1"/>
    <trip id="384" depart="460.80" from="-568424675" to="8099278#1"/>
    <trip id="386" depart="463.20" from="-568424675" to="568424675"/>
    <trip id="387" depart="464.40" from="253335412" to="-253335412"/>
    <trip id="388" depart="465.60" from="568424672" to="8099278#1"/>
    <trip id="389" depart="466.80" from="-8099278#1" to="-253335412"/>
    <trip id="394" depart="472.80" from="253335412" to="-568424672"/>
    <trip id="395" depart="474.00" from="568424672" to="568424675"/>
    <trip id="396" depart="475.20" from="568424672" to="8099278#1"/>
    <trip id="397" depart="476.40" from="-603708716" to="603708716"/>
    <trip id="398" depart="477.60" from="-8099278#1" to="8099278#1"/>
    <trip id="400" depart="480.00" from="-603708716" to="-28444031"/>
    <trip id="401" depart="481.20" from="253335412" to="8099278#1"/>
    <trip id="402" depart="482.40" from="-8099278#1" to="-253335412"/>
    <trip id="403" depart="483.60" from="253335412" to="-568424672"/>
    <trip id="404" depart="484.80" from="253335412" to="568424675"/>
    <trip id="406" depart="487.20" from="-603708716" to="603708716"/>
    <trip id="409" depart="490.80" from="28444031" to="603708716"/>
    <trip id="412" depart="494.40" from="568424672" to="-568424672"/>
    <trip id="413" depart="495.60" from="-568424675" to="568424675"/>
    <trip id="414" depart="496.80" from="253335412" to="8099278#1"/>
    <trip id="415" depart="498.00" from="568424672" to="-568424672"/>
    <trip id="416" depart="499.20" from="253335412" to="-568424672"/>
    <trip id="418" depart="501.60" from="253335412" to="-253335412"/>
    <trip id="419" depart="502.80" from="-8099278#1" to="8099278#1"/>
    <trip id="421" depart="505.20" from="253335412" to="8099278#1"/>
    <trip id="422" depart="506.40" from="568424672" to="8099278#1"/>
    <trip id="424" depart="508.80" from="28444031" to="603708716"/>
    <trip id="425" depart="510.00" from="568424672" to="-253335412"/>
    <trip id="426" depart="511.20" from="-568424675" to="568424675"/>
    <trip id="427" depart="512.40" from="568424672" to="8099278#1"/>
    <trip id="429" depart="514.80" from="-568424675" to="568424675"/>
    <trip id="430" depart="516.00" from="568424672" to="-568424672"/>
    <trip id="434" depart="520.80" from="-568424675" to="568424675"/>
    <trip id="437" depart="524.40" from="568424672" to="568424675"/>
    <trip id="439" depart="526.80" from="-568424675" to="-568424672"/>
    <trip id="440" depart="528.00" from="-603708716" to="-28444031"/>
    <trip id="443" depart="531.60" from="-568424675" to="-568424672"/>
    <trip id="444" depart="532.80" from="-8099278#1" to="568424675"/>
    <trip id="445" depart="534.00" from="253335412" to="-568424672"/>
    <trip id="449" depart="538.80" from="253335412" to="568424675"/>
    <trip id="451" depart="541.20" from="568424672" to="568424675"/>
    <trip id="453" depart="543.60" from="28444031" to="603708716"/>
    <trip id="454" depart="544.80" from="-568424675" to="568424675"/>
    <trip id="455" depart="546.00" from="-8099278#1" to="8099278#1"/>
    <trip id="456" depart="547.20" from="-603708716" to="603708716"/>
    <trip id="457" depart="548.40" from="253335412" to="-568424672"/>
    <trip id="458" depart="549.60" from="253335412" to="568424675"/>
    <trip id="459" depart="550.80" from="28444031" to="603708716"/>
    <trip id="460" depart="552.00" from="253335412" to="8099278#1"/>
    <trip id="461" depart="553.20" from="253335412" to="8099278#1"/>
    <trip id="463" depart="555.60" from="-8099278#1" to="568424675"/>
    <trip id="465" depart="558.00" from="-603708716" to="603708716"/>
    <trip id="467" depart="560.40" from="253335412" to="8099278#1"/>
    <trip id="468" depart="561.60" from="253335412" to="8099278#1"/>
    <trip id="469" depart="562.80" from="28444031" to="-28444031"/>
    <trip id="471" depart="565.20" from="28444031" to="603708716"/>
    <trip id="472" depart="566.40" from="-8099278#1" to="-253335412"/>
    <trip id="473" depart="567.60" from="568424672" to="-253335412"/>
    <trip id="474" depart="568.80" from="568424672" to="8099278#1"/>
    <trip id="478" depart="573.60" from="-568424675" to="568424675"/>
    <trip id="483" depart="579.60" from="-568424675" to="8099278#1"/>
    <trip id="484" depart="580.80" from="253335412" to="8099278#1"/>
    <trip id="488" depart="585.60" from="-568424675" to="8099278#1"/>
    <trip id="490" depart="588.00" from="-568424675" to="8099278#1"/>
    <trip id="491" depart="589.20" from="-568424675" to="-568424672"/>
    <trip id="492" depart="590.40" from="28444031" to="603708716"/>
    <trip id="493" depart="591.60" from="568424672" to="-568424672"/>
    <trip id="495" depart="594.00" from="-8099278#1" to="-253335412"/>
    <trip id="496" depart="595.20" from="-8099278#1" to="-568424672"/>
    <trip id="497" depart="596.40" from="568424672" to="-253335412"/>
    <trip id="498" depart="597.60" from="-8099278#1" to="-568424672"/>
    <trip id="499" depart="598.80" from="568424672" to="8099278#1"/>
    <trip id="501" depart="601.20" from="253335412" to="8099278#1"/>
    <trip id="502" depart="602.40" from="-8099278#1" to="-568424672"/>
    <trip id="504" depart="604.80" from="568424672" to="-568424672"/>
    <trip id="505" depart="606.00" from="253335412" to="568424675"/>
    <trip id="506" depart="607.20" from="253335412" to="-253335412"/>
    <trip id="507" depart="608.40" from="28444031" to="-28444031"/>
    <trip id="508" depart="609.60" from="-568424675" to="568424675"/>
    <trip id="510" depart="612.00" from="-603708716" to="-28444031"/>
    <trip id="512" depart="614.40" from="-568424675" to="8099278#1"/>
    <trip id="513" depart="615.60" from="-568424675" to="8099278#1"/>
    <trip id="514" depart="616.80" from="-568424675" to="-253335412"/>
    <trip id="515" depart="618.00" from="-603708716" to="-28444031"/>
    <trip id="516" depart="619.20" from="253335412" to="-253335412"/>
    <trip id="518" depart="621.60" from="-603708716" to="-28444031"/>
    <trip id="523" depart="627.60" from="-568424675" to="568424675"/>
    <trip id="524" depart="628.80" from="568424672" to="-253335412"/>
    <trip id="526" depart="631.20" from="253335412" to="-568424672"/>
    <trip id="527" depart="632.40" from="568424672" to="-253335412"/>
    <trip id="528" depart="633.60" from="-8099278#1" to="-568424672"/>
    <trip id="530" depart="636.00" from="568424672" to="-253335412"/>
    <trip id="531" depart="637.20" from="-568424675" to="568424675"/>
    <trip id="533" depart="639.60" from="253335412" to="568424675"/>
    <trip id="535" depart="642.00" from="253335412" to="-568424672"/>
    <trip id="536" depart="643.20" from="253335412" to="-253335412"/>
    <trip id="539" depart="646.80" from="28444031" to="-28444031"/>
    <trip id="541" depart="649.20" from="-8099278#1" to="-568424672"/>
    <trip id="542" depart="650.40" from="-8099278#1" to="-253335412"/>
    <trip id="543" depart="651.60" from="-8099278#1" to="568424675"/>
    <trip id="544" depart="652.80" from="-8099278#1" to="-253335412"/>
    <trip id="545" depart="654.00" from="568424672" to="-253335412"/>
    <trip id="549" depart="658.80" from="253335412" to="568424675"/>
    <trip id="551" depart="661.20" from="-8099278#1" to="568424675"/>
    <trip id="554" depart="664.80" from="253335412" to="-568424672"/>
    <trip id="557" depart="668.40" from="-568424675" to="8099278#1"/>
    <trip id="560" depart="672.00" from="568424672" to="8099278#1"/>
    <trip id="562" depart="674.40" from="253335412" to="-253335412"/>
    <trip id="564" depart="676.80" from="-603708716" to="-28444031"/>
    <trip id="565" depart="678.00" from="28444031" to="-28444031"/>
    <trip id="566" depart="679.20" from="-8099278#1" to="-253335412"/>
    <trip id="567" depart="680.40" from="568424672" to="568424675"/>
    <trip id="568" depart="681.60" from="-8099278#1" to="-253335412"/>
    <trip id="569" depart="682.80" from="253335412" to="-253335412"/>
    <trip id="570" depart="684.00" from="28444031" to="-28444031"/>
    <trip id="571" depart="685.20" from="-8099278#1" to="-568424672"/>
    <trip id="574" depart="688.80" from="-568424675" to="-253335412"/>
    <trip id="575" depart="690.00" from="-568424675" to="568424675"/>
    <trip id="576" depart="691.20" from="28444031" to="-28444031"/>
    <trip id="577" depart="692.40" from="253335412" to="-568424672"/>
    <trip id="583" depart="699.60" from="-8099278#1" to="568424675"/>
    <trip id="586" depart="703.20" from="-603708716" to="-28444031"/>
    <trip id="591" depart="709.20" from="-568424675" to="8099278#1"/>
    <trip id="592" depart="710.40" from="-568424675" to="-253335412"/>
    <trip id="593" depart="711.60" from="568424672" to="8099278#1"/>
    <trip id="594" depart="712.80" from="253335412" to="568424675"/>
    <trip id="596" depart="715.20" from="-568424675" to="-253335412"/>
    <trip id="597" depart="716.40" from="-603708716" to="603708716"/>
    <trip id="599" depart="718.80" from="568424672" to="-253335412"/>
    <trip id="601" depart="721.20" from="253335412" to="568424675"/>
    <trip id="605" depart="726.00" from="-568424675" to="568424675"/>
    <trip id="606" depart="727.20" from="568424672" to="-568424672"/>
    <trip id="607" depart="728.40" from="28444031" to="603708716"/>
    <trip id="608" depart="729.60" from="28444031" to="-28444031"/>
    <trip id="613" depart="735.60" from="28444031" to="603708716"/>
    <trip id="614" depart="736.80" from="-8099278#1" to="8099278#1"/>
    <trip id="615" depart="738.00" from="253335412" to="568424675"/>
    <trip id="616" depart="739.20" from="253335412" to="8099278#1"/>
    <trip id="617" depart="740.40" from="253335412" to="-253335412"/>
    <trip id="618" depart="741.60" from="-568424675" to="-568424672"/>
    <trip id="619" depart="742.80" from="-603708716" to="-28444031"/>
    <trip id="620" depart="744.00" from="-568424675" to="568424675"/>
    <trip id="623" depart="747.60" from="-568424675" to="8099278#1"/>
    <trip id="624" depart="748.80" from="568424672" to="568424675"/>
    <trip id="625" depart="750.00" from="253335412" to="-568424672"/>
    <trip id="627" depart="752.40" from="568424672" to="-568424672"/>
    <trip id="630" depart="756.00" from="-568424675" to="-253335412"/>
    <trip id="631" depart="757.20" from="-568424675" to="8099278#1"/>
    <trip id="635" depart="762.00" from="-8099278#1" to="568424675"/>
    <trip id="636" depart="763.20" from="-568424675" to="-568424672"/>
    <trip id="638" depart="765.60" from="-8099278#1" to="568424675"/>
    <trip id="640" depart="768.00" from="-568424675" to="-253335412"/>
    <trip id="641" depart="769.20" from="28444031" to="-28444031"/>
    <trip id="643" depart="771.60" from="568424672" to="8099278#1"/>
    <trip id="644" depart="772.80" from="-8099278#1" to="568424675"/>
    <trip id="645" depart="774.00" from="-568424675" to="-568424672"/>
    <trip id="647" depart="776.40" from="-8099278#1" to="568424675"/>
    <trip id="650" depart="780.00" from="28444031" to="603708716"/>
    <trip id="651" depart="781.20" from="28444031" to="603708716"/>
    <trip id="653" depart="783.60" from="253335412" to="-568424672"/>
    <trip id="654" depart="784.80" from="-8099278#1" to="-568424672"/>
    <trip id="655" depart="786.00" from="-603708716" to="-28444031"/>
    <trip id="656" depart="787.20" from="568424672" to="-568424672"/>
    <trip id="658" depart="789.60" from="-568424675" to="8099278#1"/>
    <trip id="660" depart="792.00" from="568424672" to="8099278#1"/>
    <trip id="661" depart="793.20" from="-568424675" to="-568424672"/>
    <trip id="663" depart="795.60" from="-8099278#1" to="-253335412"/>
    <trip id="664" depart="796.80" from="28444031" to="603708716"/>
    <trip id="666" depart="799.20" from="-8099278#1" to="-568424672"/>
    <trip id="667" depart="800.40" from="28444031" to="-28444031"/>
    <trip id="672" depart="806.40" from="568424672" to="-568424672"/>
    <trip id="673" depart="807.60" from="568424672" to="8099278#1"/>
    <trip id="675" depart="810.00" from="-8099278#1" to="568424675"/>
    <trip id="679" depart="814.80" from="568424672" to="568424675"/>
    <trip id="680" depart="816.00" from="-568424675" to="8099278#1"/>
    <trip id="682" depart="818.40" from="28444031" to="-28444031"/>
    <trip id="683" depart="819.60" from="568424672" to="-253335412"/>
    <trip id="684" depart="820.80" from="-8099278#1" to="8099278#1"/>
    <trip id="686" depart="823.20" from="-8099278#1" to="-253335412"/>
    <trip id="687" depart="824.40" from="-568424675" to="568424675"/>
    <trip id="689" depart="826.80" from="-8099278#1" to="-253335412"/>
    <trip id="690" depart="828.00" from="568424672" to="8099278#1"/>
    <trip id="693" depart="831.60" from="28444031" to="603708716"/>
    <trip id="695" depart="834.00" from="-8099278#1" to="-253335412"/>
    <trip id="697" depart="836.40" from="568424672" to="568424675"/>
    <trip id="702" depart="842.40" from="-8099278#1" to="-253335412"/>
    <trip id="703" depart="843.60" from="568424672" to="568424675"/>
    <trip id="704" depart="844.80" from="-568424675" to="568424675"/>
    <trip id="706" depart="847.20" from="-8099278#1" to="568424675"/>
    <trip id="708" depart="849.60" from="253335412" to="-253335412"/>
    <trip id="709" depart="850.80" from="568424672" to="-253335412"/>
    <trip id="710" depart="852.00" from="253335412" to="568424675"/>
    <trip id="711" depart="853.20" from="568424672" to="568424675"/>
    <trip id="712" depart="854.40" from="-8099278#1" to="-568424672"/>
    <trip id="713" depart="855.60" from="253335412" to="8099278#1"/>