<?xml version="1.0" encoding="UTF-8"?>

<!-- generated on 2024-09-03 01:37:11.906722 by randomTrips.py UNKNOWN
<configuration>
    <net-file value="train_files/intersection/easy/outputs/map(83)_dict/map(83)/map(83).net.xml"/>
    <output-trip-file value="train_files/intersection/easy/outputs/map(83)_dict/map(83)/map(83).trips.xml"/>
    <fringe-factor value="max"/>
    <validate value="True"/>
    <period value="3.6"/>
</configuration>
-->

<!-- generated on 2024-09-03 01:37:11 by Eclipse SUMO duarouter Version 1.20.0
<configuration xmlns:xsi="http://www.w3.org/2001/XMLSchema-instance" xsi:noNamespaceSchemaLocation="http://sumo.dlr.de/xsd/duarouterConfiguration.xsd">

    <input>
        <net-file value="train_files/intersection/easy/outputs/map(83)_dict/map(83)/map(83).net.xml"/>
        <route-files value="train_files/intersection/easy/outputs/map(83)_dict/map(83)/map(83).trips.xml"/>
    </input>

    <output>
        <output-file value="train_files/intersection/easy/outputs/map(83)_dict/map(83)/map(83).trips.xml.tmp"/>
        <alternatives-output value="NUL"/>
        <write-trips value="true"/>
    </output>

    <time>
        <begin value="0"/>
        <end value="3600"/>
    </time>

    <report>
        <no-warnings value="true"/>
        <ignore-errors value="true"/>
        <no-step-log value="true"/>
    </report>

</configuration>
-->

<routes xmlns:xsi="http://www.w3.org/2001/XMLSchema-instance" xsi:noNamespaceSchemaLocation="http://sumo.dlr.de/xsd/routes_file.xsd">
    <trip id="1" depart="3.60" from="33804215" to="-33804215"/>
    <trip id="2" depart="7.20" from="344514067" to="-344514067"/>
    <trip id="4" depart="14.40" from="33804215" to="-33804215"/>
    <trip id="6" depart="21.60" from="33804215" to="-33804215"/>
    <trip id="7" depart="25.20" from="344514067" to="-344514067"/>
    <trip id="10" depart="36.00" from="344514067" to="-344514067"/>
    <trip id="11" depart="39.60" from="33804215" to="-33804215"/>
    <trip id="13" depart="46.80" from="33804215" to="-33804215"/>
    <trip id="14" depart="50.40" from="344514067" to="-344514067"/>
    <trip id="15" depart="54.00" from="344514067" to="-344514067"/>
    <trip id="16" depart="57.60" from="344514067" to="-344514067"/>
    <trip id="18" depart="64.80" from="344514067" to="-344514067"/>
    <trip id="19" depart="68.40" from="344514067" to="-344514067"/>
    <trip id="21" depart="75.60" from="33804215" to="-33804215"/>
    <trip id="22" depart="79.20" from="33804215" to="-33804215"/>
    <trip id="23" depart="82.80" from="33804215" to="-33804215"/>
    <trip id="25" depart="90.00" from="33804215" to="-33804215"/>
    <trip id="27" depart="97.20" from="344514067" to="-344514067"/>
    <trip id="29" depart="104.40" from="33804215" to="-33804215"/>
    <trip id="30" depart="108.00" from="344514067" to="-344514067"/>
    <trip id="31" depart="111.60" from="344514067" to="-344514067"/>
    <trip id="32" depart="115.20" from="344514067" to="-344514067"/>
    <trip id="33" depart="118.80" from="33804215" to="-33804215"/>
    <trip id="34" depart="122.40" from="33804215" to="-33804215"/>
    <trip id="39" depart="140.40" from="33804215" to="-33804215"/>
    <trip id="41" depart="147.60" from="344514067" to="-344514067"/>
    <trip id="42" depart="151.20" from="33804215" to="-33804215"/>
    <trip id="43" depart="154.80" from="344514067" to="-344514067"/>
    <trip id="44" depart="158.40" from="33804215" to="-33804215"/>
    <trip id="47" depart="169.20" from="33804215" to="-33804215"/>
    <trip id="48" depart="172.80" from="344514067" to="-344514067"/>
    <trip id="49" depart="176.40" from="344514067" to="-344514067"/>
    <trip id="51" depart="183.60" from="344514067" to="-344514067"/>
    <trip id="53" depart="190.80" from="33804215" to="-33804215"/>
    <trip id="57" depart="205.20" from="344514067" to="-344514067"/>
    <trip id="60" depart="216.00" from="344514067" to="-344514067"/>
    <trip id="61" depart="219.60" from="344514067" to="-344514067"/>
    <trip id="62" depart="223.20" from="33804215" to="-33804215"/>
    <trip id="64" depart="230.40" from="344514067" to="-344514067"/>
    <trip id="65" depart="234.00" from="33804215" to="-33804215"/>
    <trip id="66" depart="237.60" from="344514067" to="-344514067"/>
    <trip id="67" depart="241.20" from="33804215" to="-33804215"/>
    <trip id="72" depart="259.20" from="33804215" to="-33804215"/>
    <trip id="73" depart="262.80" from="344514067" to="-344514067"/>
    <trip id="74" depart="266.40" from="33804215" to="-33804215"/>
    <trip id="75" depart="270.00" from="344514067" to="-344514067"/>
    <trip id="77" depart="277.20" from="33804215" to="-33804215"/>
    <trip id="79" depart="284.40" from="33804215" to="-33804215"/>
    <trip id="84" depart="302.40" from="33804215" to="-33804215"/>
    <trip id="85" depart="306.00" from="344514067" to="-344514067"/>
    <trip id="88" depart="316.80" from="33804215" to="-33804215"/>
    <trip id="89" depart="320.40" from="33804215" to="-33804215"/>
    <trip id="90" depart="324.00" from="344514067" to="-344514067"/>
    <trip id="92" depart="331.20" from="33804215" to="-33804215"/>
    <trip id="94" depart="338.40" from="33804215" to="-33804215"/>
    <trip id="95" depart="342.00" from="33804215" to="-33804215"/>
    <trip id="99" depart="356.40" from="344514067" to="-344514067"/>
    <trip id="100" depart="360.00" from="344514067" to="-344514067"/>
    <trip id="102" depart="367.20" from="33804215" to="-33804215"/>
    <trip id="103" depart="370.80" from="33804215" to="-33804215"/>
    <trip id="106" depart="381.60" from="33804215" to="-33804215"/>
    <trip id="107" depart="385.20" from="344514067" to="-344514067"/>
    <trip id="108" depart="388.80" from="344514067" to="-344514067"/>
    <trip id="109" depart="392.40" from="33804215" to="-33804215"/>
    <trip id="110" depart="396.00" from="344514067" to="-344514067"/>
    <trip id="111" depart="399.60" from="344514067" to="-344514067"/>
    <trip id="113" depart="406.80" from="344514067" to="-344514067"/>
    <trip id="115" depart="414.00" from="33804215" to="-33804215"/>
    <trip id="116" depart="417.60" from="344514067" to="-344514067"/>
    <trip id="117" depart="421.20" from="33804215" to="-33804215"/>
    <trip id="119" depart="428.40" from="344514067" to="-344514067"/>
    <trip id="121" depart="435.60" from="344514067" to="-344514067"/>
    <trip id="123" depart="442.80" from="33804215" to="-33804215"/>
    <trip id="126" depart="453.60" from="33804215" to="-33804215"/>
    <trip id="127" depart="457.20" from="344514067" to="-344514067"/>
    <trip id="128" depart="460.80" from="33804215" to="-33804215"/>
    <trip id="130" depart="468.00" from="344514067" to="-344514067"/>
    <trip id="131" depart="471.60" from="33804215" to="-33804215"/>
    <trip id="132" depart="475.20" from="344514067" to="-344514067"/>
    <trip id="133" depart="478.80" from="344514067" to="-344514067"/>
    <trip id="136" depart="489.60" from="344514067" to="-344514067"/>
    <trip id="137" depart="493.20" from="33804215" to="-33804215"/>
    <trip id="144" depart="518.40" from="33804215" to="-33804215"/>
    <trip id="147" depart="529.20" from="344514067" to="-344514067"/>
    <trip id="148" depart="532.80" from="33804215" to="-33804215"/>
    <trip id="150" depart="540.00" from="344514067" to="-344514067"/>
    <trip id="151" depart="543.60" from="344514067" to="-344514067"/>
    <trip id="152" depart="547.20" from="33804215" to="-33804215"/>
    <trip id="154" depart="554.40" from="344514067" to="-344514067"/>
    <trip id="156" depart="561.60" from="33804215" to="-33804215"/>
    <trip id="157" depart="565.20" from="344514067" to="-344514067"/>
    <trip id="160" depart="576.00" from="344514067" to="-344514067"/>
    <trip id="161" depart="579.60" from="344514067" to="-344514067"/>
    <trip id="164" depart="590.40" from="344514067" to="-344514067"/>
    <trip id="167" depart="601.20" from="344514067" to="-344514067"/>
    <trip id="169" depart="608.40" from="33804215" to="-33804215"/>
    <trip id="171" depart="615.60" from="33804215" to="-33804215"/>
    <trip id="175" depart="630.00" from="344514067" to="-344514067"/>
    <trip id="179" depart="644.40" from="33804215" to="-33804215"/>
    <trip id="181" depart="651.60" from="344514067" to="-344514067"/>
    <trip id="185" depart="666.00" from="344514067" to="-344514067"/>
    <trip id="186" depart="669.60" from="344514067" to="-344514067"/>
    <trip id="187" depart="673.20" from="33804215" to="-33804215"/>
    <trip id="191" depart="687.60" from="33804215" to="-33804215"/>
    <trip id="192" depart="691.20" from="33804215" to="-33804215"/>
    <trip id="193" depart="694.80" from="33804215" to="-33804215"/>
    <trip id="194" depart="698.40" from="344514067" to="-344514067"/>
    <trip id="195" depart="702.00" from="344514067" to="-344514067"/>
    <trip id="197" depart="709.20" from="33804215" to="-33804215"/>
    <trip id="200" depart="720.00" from="33804215" to="-33804215"/>
    <trip id="205" depart="738.00" from="344514067" to="-344514067"/>
    <trip id="207" depart="745.20" from="33804215" to="-33804215"/>
    <trip id="208" depart="748.80" from="33804215" to="-33804215"/>
    <trip id="212" depart="763.20" from="33804215" to="-33804215"/>
    <trip id="214" depart="770.40" from="344514067" to="-344514067"/>
    <trip id="215" depart="774.00" from="33804215" to="-33804215"/>
    <trip id="220" depart="792.00" from="344514067" to="-344514067"/>
    <trip id="221" depart="795.60" from="344514067" to="-344514067"/>
    <trip id="222" depart="799.20" from="344514067" to="-344514067"/>
    <trip id="223" depart="802.80" from="344514067" to="-344514067"/>
    <trip id="224" depart="806.40" from="344514067" to="-344514067"/>
    <trip id="225" depart="810.00" from="344514067" to="-344514067"/>
    <trip id="226" depart="813.60" from="33804215" to="-33804215"/>
    <trip id="228" depart="820.80" from="344514067" to="-344514067"/>
    <trip id="230" depart="828.00" from="33804215" to="-33804215"/>
    <trip id="231" depart="831.60" from="33804215" to="-33804215"/>
    <trip id="236" depart="849.60" from="33804215" to="-33804215"/>
    <trip id="238" depart="856.80" from="344514067" to="-344514067"/>
    <trip id="239" depart="860.40" from="344514067" to="-344514067"/>
    <trip id="240" depart="864.00" from="33804215" to="-33804215"/>
    <trip id="242" depart="871.20" from="344514067" to="-344514067"/>
    <trip id="244" depart="878.40" from="344514067" to="-344514067"/>
    <trip id="245" depart="882.00" from="33804215" to="-33804215"/>
    <trip id="246" depart="885.60" from="33804215" to="-33804215"/>
    <trip id="248" depart="892.80" from="33804215" to="-33804215"/>
    <trip id="249" depart="896.40" from="33804215" to="-33804215"/>
    <trip id="253" depart="910.80" from="33804215" to="-33804215"/>
    <trip id="254" depart="914.40" from="33804215" to="-33804215"/>
    <trip id="255" depart="918.00" from="33804215" to="-33804215"/>
    <trip id="257" depart="925.20" from="344514067" to="-344514067"/>
    <trip id="258" depart="928.80" from="33804215" to="-33804215"/>
    <trip id="261" depart="939.60" from="344514067" to="-344514067"/>
    <trip id="262" depart="943.20" from="344514067" to="-344514067"/>
    <trip id="264" depart="950.40" from="33804215" to="-33804215"/>
    <trip id="267" depart="961.20" from="344514067" to="-344514067"/>
    <trip id="270" depart="972.00" from="344514067" to="-344514067"/>
    <trip id="271" depart="975.60" from="33804215" to="-33804215"/>
    <trip id="275" depart="990.00" from="344514067" to="-344514067"/>
    <trip id="277" depart="997.20" from="344514067" to="-344514067"/>
    <trip id="280" depart="1008.00" from="33804215" to="-33804215"/>
    <trip id="282" depart="1015.20" from="344514067" to="-344514067"/>
    <trip id="284" depart="1022.40" from="344514067" to="-344514067"/>
    <trip id="286" depart="1029.60" from="344514067" to="-344514067"/>
    <trip id="294" depart="1058.40" from="33804215" to="-33804215"/>
    <trip id="302" depart="1087.20" from="344514067" to="-344514067"/>
    <trip id="304" depart="1094.40" from="33804215" to="-33804215"/>
    <trip id="310" depart="1116.00" from="33804215" to="-33804215"/>
    <trip id="311" depart="1119.60" from="33804215" to="-33804215"/>
    <trip id="312" depart="1123.20" from="344514067" to="-344514067"/>
    <trip id="313" depart="1126.80" from="33804215" to="-33804215"/>
    <trip id="315" depart="1134.00" from="344514067" to="-344514067"/>
    <trip id="316" depart="1137.60" from="33804215" to="-33804215"/>
    <trip id="317" depart="1141.20" from="33804215" to="-33804215"/>
    <trip id="318" depart="1144.80" from="33804215" to="-33804215"/>
    <trip id="320" depart="1152.00" from="344514067" to="-344514067"/>
    <trip id="323" depart="1162.80" from="344514067" to="-344514067"/>
    <trip id="324" depart="1166.40" from="33804215" to="-33804215"/>
    <trip id="325" depart="1170.00" from="33804215" to="-33804215"/>
    <trip id="329" depart="1184.40" from="33804215" to="-33804215"/>
    <trip id="332" depart="1195.20" from="344514067" to="-344514067"/>
    <trip id="337" depart="1213.20" from="344514067" to="-344514067"/>
    <trip id="338" depart="1216.80" from="344514067" to="-344514067"/>
    <trip id="339" depart="1220.40" from="33804215" to="-33804215"/>
    <trip id="341" depart="1227.60" from="33804215" to="-33804215"/>
    <trip id="342" depart="1231.20" from="33804215" to="-33804215"/>
    <trip id="346" depart="1245.60" from="344514067" to="-344514067"/>
    <trip id="347" depart="1249.20" from="344514067" to="-344514067"/>
    <trip id="348" depart="1252.80" from="344514067" to="-344514067"/>
    <trip id="350" depart="1260.00" from="344514067" to="-344514067"/>
    <trip id="352" depart="1267.20" from="33804215" to="-33804215"/>
    <trip id="353" depart="1270.80" from="344514067" to="-344514067"/>
    <trip id="354" depart="1274.40" from="33804215" to="-33804215"/>
    <trip id="355" depart="1278.00" from="344514067" to="-344514067"/>
    <trip id="356" depart="1281.60" from="344514067" to="-344514067"/>
    <trip id="357" depart="1285.20" from="33804215" to="-33804215"/>
    <trip id="358" depart="1288.80" from="33804215" to="-33804215"/>
    <trip id="359" depart="1292.40" from="33804215" to="-33804215"/>
    <trip id="361" depart="1299.60" from="344514067" to="-344514067"/>
    <trip id="362" depart="1303.20" from="344514067" to="-344514067"/>
    <trip id="367" depart="1321.20" from="344514067" to="-344514067"/>
    <trip id="368" depart="1324.80" from="33804215" to="-33804215"/>
    <trip id="369" depart="1328.40" from="33804215" to="-33804215"/>
    <trip id="370" depart="1332.00" from="344514067" to="-344514067"/>
    <trip id="373" depart="1342.80" from="344514067" to="-344514067"/>
    <trip id="374" depart="1346.40" from="33804215" to="-33804215"/>
    <trip id="377" depart="1357.20" from="344514067" to="-344514067"/>
    <trip id="379" depart="1364.40" from="33804215" to="-33804215"/>
    <trip id="380" depart="1368.00" from="344514067" to="-344514067"/>
    <trip id="382" depart="1375.20" from="344514067" to="-344514067"/>
    <trip id="388" depart="1396.80" from="344514067" to="-344514067"/>
    <trip id="389" depart="1400.40" from="33804215" to="-33804215"/>
    <trip id="391" depart="1407.60" from="344514067" to="-344514067"/>
    <trip id="395" depart="1422.00" from="344514067" to="-344514067"/>
    <trip id="396" depart="1425.60" from="344514067" to="-344514067"/>
    <trip id="399" depart="1436.40" from="344514067" to="-344514067"/>
    <trip id="400" depart="1440.00" from="33804215" to="-33804215"/>
    <trip id="401" depart="1443.60" from="344514067" to="-344514067"/>
    <trip id="402" depart="1447.20" from="33804215" to="-33804215"/>
    <trip id="404" depart="1454.40" from="344514067" to="-344514067"/>
    <trip id="405" depart="1458.00" from="33804215" to="-33804215"/>
    <trip id="409" depart="1472.40" from="344514067" to="-344514067"/>
    <trip id="411" depart="1479.60" from="344514067" to="-344514067"/>
    <trip id="414" depart="1490.40" from="344514067" to="-344514067"/>
    <trip id="421" depart="1515.60" from="344514067" to="-344514067"/>
    <trip id="422" depart="1519.20" from="344514067" to="-344514067"/>
    <trip id="423" depart="1522.80" from="33804215" to="-33804215"/>
    <trip id="424" depart="1526.40" from="344514067" to="-344514067"/>
    <trip id="427" depart="1537.20" from="344514067" to="-344514067"/>
    <trip id="431" depart="1551.60" from="344514067" to="-344514067"/>
    <trip id="433" depart="1558.80" from="33804215" to="-33804215"/>
    <trip id="435" depart="1566.00" from="344514067" to="-344514067"/>
    <trip id="436" depart="1569.60" from="33804215" to="-33804215"/>
    <trip id="437" depart="1573.20" from="344514067" to="-344514067"/>
    <trip id="439" depart="1580.40" from="33804215" to="-33804215"/>
    <trip id="440" depart="1584.00" from="33804215" to="-33804215"/>
    <trip id="442" depart="1591.20" from="344514067" to="-344514067"/>
    <trip id="443" depart="1594.80" from="33804215" to="-33804215"/>
    <trip id="447" depart="1609.20" from="33804215" to="-33804215"/>
    <trip id="448" depart="1612.80" from="33804215" to="-33804215"/>
    <trip id="449" depart="1616.40" from="344514067" to="-344514067"/>
    <trip id="451" depart="1623.60" from="344514067" to="-344514067"/>
    <trip id="453" depart="1630.80" from="344514067" to="-344514067"/>
    <trip id="458" depart="1648.80" from="344514067" to="-344514067"/>
    <trip id="459" depart="1652.40" from="344514067" to="-344514067"/>
    <trip id="460" depart="1656.00" from="344514067" to="-344514067"/>
    <trip id="461" depart="1659.60" from="344514067" to="-344514067"/>
    <trip id="466" depart="1677.60" from="33804215" to="-33804215"/>
    <trip id="467" depart="1681.20" from="344514067" to="-344514067"/>
    <trip id="468" depart="1684.80" from="344514067" to="-344514067"/>
    <trip id="471" depart="1695.60" from="344514067" to="-344514067"/>
    <trip id="472" depart="1699.20" from="33804215" to="-33804215"/>
    <trip id="474" depart="1706.40" from="344514067" to="-344514067"/>
    <trip id="475" depart="1710.00" from="344514067" to="-344514067"/>
    <trip id="476" depart="1713.60" from="344514067" to="-344514067"/>
    <trip id="480" depart="1728.00" from="344514067" to="-344514067"/>
    <trip id="481" depart="1731.60" from="344514067" to="-344514067"/>
    <trip id="482" depart="1735.20" from="33804215" to="-33804215"/>
    <trip id="484" depart="1742.40" from="344514067" to="-344514067"/>
    <trip id="485" depart="1746.00" from="33804215" to="-33804215"/>
    <trip id="486" depart="1749.60" from="344514067" to="-344514067"/>
    <trip id="487" depart="1753.20" from="33804215" to="-33804215"/>
    <trip id="489" depart="1760.40" from="33804215" to="-33804215"/>
    <trip id="491" depart="1767.60" from="33804215" to="-33804215"/>
    <trip id="492" depart="1771.20" from="344514067" to="-344514067"/>
    <trip id="495" depart="1782.00" from="33804215" to="-33804215"/>
    <trip id="496" depart="1785.60" from="33804215" to="-33804215"/>
    <trip id="498" depart="1792.80" from="33804215" to="-33804215"/>
    <trip id="499" depart="1796.40" from="344514067" to="-344514067"/>
    <trip id="501" depart="1803.60" from="344514067" to="-344514067"/>
    <trip id="502" depart="1807.20" from="33804215" to="-33804215"/>
    <trip id="503" depart="1810.80" from="33804215" to="-33804215"/>
    <trip id="505" depart="1818.00" from="344514067" to="-344514067"/>
    <trip id="510" depart="1836.00" from="33804215" to="-33804215"/>
    <trip id="514" depart="1850.40" from="33804215" to="-33804215"/>
    <trip id="515" depart="1854.00" from="33804215" to="-33804215"/>
    <trip id="518" depart="1864.80" from="33804215" to="-33804215"/>
    <trip id="519" depart="1868.40" from="33804215" to="-33804215"/>
    <trip id="520" depart="1872.00" from="344514067" to="-344514067"/>
    <trip id="522" depart="1879.20" from="344514067" to="-344514067"/>
    <trip id="525" depart="1890.00" from="344514067" to="-344514067"/>
    <trip id="528" depart="1900.80" from="33804215" to="-33804215"/>
    <trip id="532" depart="1915.20" from="33804215" to="-33804215"/>
    <trip id="533" depart="1918.80" from="344514067" to="-344514067"/>
    <trip id="537" depart="1933.20" from="344514067" to="-344514067"/>
    <trip id="538" depart="1936.80" from="344514067" to="-344514067"/>
    <trip id="540" depart="1944.00" from="33804215" to="-33804215"/>
    <trip id="541" depart="1947.60" from="33804215" to="-33804215"/>
    <trip id="542" depart="1951.20" from="33804215" to="-33804215"/>
    <trip id="544" depart="1958.40" from="33804215" to="-33804215"/>
    <trip id="548" depart="1972.80" from="344514067" to="-344514067"/>
    <trip id="549" depart="1976.40" from="344514067" to="-344514067"/>
    <trip id="550" depart="1980.00" from="33804215" to="-33804215"/>
    <trip id="552" depart="1987.20" from="344514067" to="-344514067"/>
    <trip id="553" depart="1990.80" from="344514067" to="-344514067"/>
    <trip id="559" depart="2012.40" from="344514067" to="-344514067"/>
    <trip id="560" depart="2016.00" from="344514067" to="-344514067"/>
    <trip id="561" depart="2019.60" from="344514067" to="-344514067"/>
    <trip id="563" depart="2026.80" from="344514067" to="-344514067"/>
    <trip id="564" depart="2030.40" from="33804215" to="-33804215"/>
    <trip id="566" depart="2037.60" from="33804215" to="-33804215"/>
    <trip id="567" depart="2041.20" from="344514067" to="-344514067"/>
    <trip id="568" depart="2044.80" from="33804215" to="-33804215"/>
    <trip id="571" depart="2055.60" from="33804215" to="-33804215"/>
    <trip id="573" depart="2062.80" from="344514067" to="-344514067"/>
    <trip id="574" depart="2066.40" from="33804215" to="-33804215"/>
    <trip id="578" depart="2080.80" from="33804215" to="-33804215"/>
    <trip id="580" depart="2088.00" from="33804215" to="-33804215"/>
    <trip id="584" depart="2102.40" from="33804215" to="-33804215"/>
    <trip id="585" depart="2106.00" from="33804215" to="-33804215"/>
    <trip id="586" depart="2109.60" from="33804215" to="-33804215"/>
    <trip id="588" depart="2116.80" from="33804215" to="-33804215"/>
    <trip id="589" depart="2120.40" from="344514067" to="-344514067"/>
    <trip id="590" depart="2124.00" from="344514067" to="-344514067"/>
    <trip id="592" depart="2131.20" from="33804215" to="-33804215"/>
    <trip id="593" depart="2134.80" from="344514067" to="-344514067"/>
    <trip id="594" depart="2138.40" from="344514067" to="-344514067"/>
    <trip id="596" depart="2145.60" from="33804215" to="-33804215"/>
    <trip id="598" depart="2152.80" from="344514067" to="-344514067"/>
    <trip id="601" depart="2163.60" from="344514067" to="-344514067"/>
    <trip id="602" depart="2167.20" from="33804215" to="-33804215"/>
    <trip id="603" depart="2170.80" from="33804215" to="-33804215"/>
    <trip id="607" depart="2185.20" from="344514067" to="-344514067"/>
    <trip id="609" depart="2192.40" from="33804215" to="-33804215"/>
    <trip id="610" depart="2196.00" from="344514067" to="-344514067"/>
    <trip id="613" depart="2206.80" from="344514067" to="-344514067"/>
    <trip id="615" depart="2214.00" from="344514067" to="-344514067"/>
    <trip id="616" depart="2217.60" from="344514067" to="-344514067"/>
    <trip id="618" depart="2224.80" from="33804215" to="-33804215"/>
    <trip id="619" depart="2228.40" from="33804215" to="-33804215"/>
    <trip id="621" depart="2235.60" from="33804215" to="-33804215"/>
    <trip id="624" depart="2246.40" from="344514067" to="-344514067"/>
    <trip id="626" depart="2253.60" from="344514067" to="-344514067"/>
    <trip id="628" depart="2260.80" from="344514067" to="-344514067"/>
    <trip id="629" depart="2264.40" from="33804215" to="-33804215"/>
    <trip id="630" depart="2268.00" from="33804215" to="-33804215"/>
    <trip id="634" depart="2282.40" from="33804215" to="-33804215"/>
    <trip id="636" depart="2289.60" from="33804215" to="-33804215"/>
    <trip id="637" depart="2293.20" from="33804215" to="-33804215"/>
    <trip id="639" depart="2300.40" from="344514067" to="-344514067"/>
    <trip id="640" depart="2304.00" from="33804215" to="-33804215"/>
    <trip id="642" depart="2311.20" from="344514067" to="-344514067"/>
    <trip id="643" depart="2314.80" from="344514067" to="-344514067"/>
    <trip id="645" depart="2322.00" from="33804215" to="-33804215"/>
    <trip id="646" depart="2325.60" from="344514067" to="-344514067"/>
    <trip id="650" depart="2340.00" from="344514067" to="-344514067"/>
    <trip id="651" depart="2343.60" from="344514067" to="-344514067"/>
    <trip id="652" depart="2347.20" from="344514067" to="-344514067"/>
    <trip id="654" depart="2354.40" from="33804215" to="-33804215"/>
    <trip id="655" depart="2358.00" from="33804215" to="-33804215"/>
    <trip id="657" depart="2365.20" from="33804215" to="-33804215"/>
    <trip id="660" depart="2376.00" from="344514067" to="-344514067"/>
    <trip id="661" depart="2379.60" from="33804215" to="-33804215"/>
    <trip id="663" depart="2386.80" from="33804215" to="-33804215"/>
    <trip id="664" depart="2390.40" from="344514067" to="-344514067"/>
    <trip id="666" depart="2397.60" from="33804215" to="-33804215"/>
    <trip id="668" depart="2404.80" from="33804215" to="-33804215"/>
    <trip id="673" depart="2422.80" from="344514067" to="-344514067"/>
    <trip id="674" depart="2426.40" from="33804215" to="-33804215"/>
    <trip id="676" depart="2433.60" from="344514067" to="-344514067"/>
    <trip id="679" depart="2444.40" from="344514067" to="-344514067"/>
    <trip id="685" depart="2466.00" from="33804215" to="-33804215"/>
    <trip id="686" depart="2469.60" from="33804215" to="-33804215"/>
    <trip id="689" depart="2480.40" from="33804215" to="-33804215"/>
    <trip id="690" depart="2484.00" from="344514067" to="-344514067"/>
    <trip id="691" depart="2487.60" from="344514067" to="-344514067"/>
    <trip id="692" depart="2491.20" from="33804215" to="-33804215"/>
    <trip id="693" depart="2494.80" from="344514067" to="-344514067"/>
    <trip id="695" depart="2502.00" from="33804215" to="-33804215"/>
    <trip id="696" depart="2505.60" from="33804215" to="-33804215"/>
    <trip id="697" depart="2509.20" from="344514067" to="-344514067"/>
    <trip id="698" depart="2512.80" from="344514067" to="-344514067"/>
    <trip id="699" depart="2516.40" from="33804215" to="-33804215"/>
    <trip id="700" depart="2520.00" from="33804215" to="-33804215"/>
    <trip id="702" depart="2527.20" from="33804215" to="-33804215"/>
    <trip id="703" depart="2530.80" from="344514067" to="-344514067"/>
    <trip id="705" depart="2538.00" from="33804215" to="-33804215"/>
    <trip id="707" depart="2545.20" from="33804215" to="-33804215"/>
    <trip id="710" depart="2556.00" from="344514067" to="-344514067"/>
    <trip id="711" depart="2559.60" from="344514067" to="-344514067"/>
    <trip id="712" depart="2563.20" from="33804215" to="-33804215"/>
    <trip id="713" depart="2566.80" from="344514067" to="-344514067"/>
    <trip id="714" depart="2570.40" from="33804215" to="-33804215"/>
    <trip id="716" depart="2577.60" from="344514067" to="-344514067"/>
    <trip id="717" depart="2581.20" from="344514067" to="-344514067"/>
    <trip id="718" depart="2584.80" from="33804215" to="-33804215"/>
    <trip id="719" depart="2588.40" from="344514067" to="-344514067"/>
    <trip id="722" depart="2599.20" from="344514067" to="-344514067"/>
    <trip id="724" depart="2606.40" from="33804215" to="-33804215"/>
    <trip id="725" depart="2610.00" from="33804215" to="-33804215"/>
    <trip id="727" depart="2617.20" from="344514067" to="-344514067"/>
    <trip id="732" depart="2635.20" from="33804215" to="-33804215"/>
    <trip id="733" depart="2638.80" from="344514067" to="-344514067"/>
    <trip id="737" depart="2653.20" from="344514067" to="-344514067"/>
    <trip id="739" depart="2660.40" from="344514067" to="-344514067"/>
    <trip id="744" depart="2678.40" from="33804215" to="-33804215"/>
    <trip id="747" depart="2689.20" from="344514067" to="-344514067"/>
    <trip id="750" depart="2700.00" from="344514067" to="-344514067"/>
    <trip id="754" depart="2714.40" from="33804215" to="-33804215"/>
    <trip id="755" depart="2718.00" from="344514067" to="-344514067"/>
    <trip id="756" depart="2721.60" from="344514067" to="-344514067"/>
    <trip id="758" depart="2728.80" from="344514067" to="-344514067"/>
    <trip id="760" depart="2736.00" from="33804215" to="-33804215"/>
    <trip id="763" depart="2746.80" from="33804215" to="-33804215"/>
    <trip id="766" depart="2757.60" from="33804215" to="-33804215"/>
    <trip id="771" depart="2775.60" from="33804215" to="-33804215"/>
    <trip id="772" depart="2779.20" from="344514067" to="-344514067"/>
    <trip id="773" depart="2782.80" from="344514067" to="-344514067"/>
    <trip id="774" depart="2786.40" from="344514067" to="-344514067"/>
    <trip id="775" depart="2790.00" from="344514067" to="-344514067"/>
    <trip id="776" depart="2793.60" from="33804215" to="-33804215"/>
    <trip id="780" depart="2808.00" from="344514067" to="-344514067"/>
    <trip id="781" depart="2811.60" from="33804215" to="-33804215"/>
    <trip id="782" depart="2815.20" from="344514067" to="-344514067"/>
    <trip id="783" depart="2818.80" from="344514067" to="-344514067"/>
    <trip id="785" depart="2826.00" from="344514067" to="-344514067"/>
    <trip id="788" depart="2836.80" from="344514067" to="-344514067"/>
    <trip id="791" depart="2847.60" from="33804215" to="-33804215"/>
    <trip id="792" depart="2851.20" from="33804215" to="-33804215"/>
    <trip id="795" depart="2862.00" from="344514067" to="-344514067"/>
    <trip id="801" depart="2883.60" from="344514067" to="-344514067"/>