<?xml version="1.0" encoding="UTF-8"?>

<!-- generated on 2024-09-03 01:38:02.163520 by randomTrips.py UNKNOWN
<configuration>
    <net-file value="train_files/roundabout/middle/outputs/map(90)_dict/map(90)/map(90).net.xml"/>
    <output-trip-file value="train_files/roundabout/middle/outputs/map(90)_dict/map(90)/map(90).trips.xml"/>
    <fringe-factor value="max"/>
    <validate value="True"/>
    <period value="1.2"/>
</configuration>
-->

<!-- generated on 2024-09-03 01:38:02 by Eclipse SUMO duarouter Version 1.20.0
<configuration xmlns:xsi="http://www.w3.org/2001/XMLSchema-instance" xsi:noNamespaceSchemaLocation="http://sumo.dlr.de/xsd/duarouterConfiguration.xsd">

    <input>
        <net-file value="train_files/roundabout/middle/outputs/map(90)_dict/map(90)/map(90).net.xml"/>
        <route-files value="train_files/roundabout/middle/outputs/map(90)_dict/map(90)/map(90).trips.xml"/>
    </input>

    <output>
        <output-file value="train_files/roundabout/middle/outputs/map(90)_dict/map(90)/map(90).trips.xml.tmp"/>
        <alternatives-output value="NUL"/>
        <write-trips value="true"/>
    </output>

    <time>
        <begin value="0"/>
        <end value="3600"/>
    </time>

    <report>
        <no-warnings value="true"/>
        <ignore-errors value="true"/>
        <no-step-log value="true"/>
    </report>

</configuration>
-->

<routes xmlns:xsi="http://www.w3.org/2001/XMLSchema-instance" xsi:noNamespaceSchemaLocation="http://sumo.dlr.de/xsd/routes_file.xsd">
    <trip id="2" depart="2.40" from="49674164#0" to="25226697#3"/>
    <trip id="3" depart="3.60" from="888744725#0" to="-145398224#0"/>
    <trip id="6" depart="7.20" from="-25226668#2" to="-251608797#0"/>
    <trip id="7" depart="8.40" from="25227098#0" to="25226668#2"/>
    <trip id="8" depart="9.60" from="145398224#0" to="25226697#3"/>
    <trip id="10" depart="12.00" from="49674164#0" to="25226697#3"/>
    <trip id="11" depart="13.20" from="251608797#0" to="-251608797#0"/>
    <trip id="14" depart="16.80" from="49674164#0" to="25226697#3"/>
    <trip id="15" depart="18.00" from="49674164#0" to="49674157#2"/>
    <trip id="16" depart="19.20" from="25226698#0" to="881058731#1"/>
    <trip id="17" depart="20.40" from="251608797#0" to="25226668#2"/>
    <trip id="18" depart="21.60" from="49674164#0" to="25226697#3"/>
    <trip id="19" depart="22.80" from="888744725#0" to="25226697#3"/>
    <trip id="22" depart="26.40" from="-25226668#2" to="-251608797#0"/>
    <trip id="23" depart="27.60" from="-25226668#2" to="-251608797#0"/>
    <trip id="24" depart="28.80" from="25227098#0" to="-25227098#0"/>
    <trip id="25" depart="30.00" from="251608797#0" to="-251608797#0"/>
    <trip id="26" depart="31.20" from="145398224#0" to="881058731#1"/>
    <trip id="28" depart="33.60" from="145398224#0" to="49674157#2"/>
    <trip id="30" depart="36.00" from="888744725#0" to="25226697#3"/>
    <trip id="31" depart="37.20" from="25226698#0" to="25226697#3"/>
    <trip id="32" depart="38.40" from="49674164#0" to="49674157#2"/>
    <trip id="33" depart="39.60" from="145398224#0" to="-145398224#0"/>
    <trip id="34" depart="40.80" from="251608797#0" to="-251608797#0"/>
    <trip id="35" depart="42.00" from="145398224#0" to="881058731#1"/>
    <trip id="37" depart="44.40" from="25227098#0" to="-25227098#0"/>
    <trip id="42" depart="50.40" from="251608797#0" to="-251608797#0"/>
    <trip id="47" depart="56.40" from="-25226668#2" to="-25227098#0"/>
    <trip id="49" depart="58.80" from="888744725#0" to="881058731#1"/>
    <trip id="51" depart="61.20" from="25227098#0" to="25226668#2"/>
    <trip id="52" depart="62.40" from="145398224#0" to="25226697#3"/>
    <trip id="53" depart="63.60" from="-25226668#2" to="25226668#2"/>
    <trip id="54" depart="64.80" from="25226698#0" to="881058731#1"/>
    <trip id="57" depart="68.40" from="888744725#0" to="881058731#1"/>
    <trip id="59" depart="70.80" from="25227098#0" to="-251608797#0"/>
    <trip id="62" depart="74.40" from="-25226668#2" to="-25227098#0"/>
    <trip id="64" depart="76.80" from="888744725#0" to="49674157#2"/>
    <trip id="66" depart="79.20" from="888744725#0" to="881058731#1"/>
    <trip id="67" depart="80.40" from="-25226668#2" to="25226668#2"/>
    <trip id="71" depart="85.20" from="145398224#0" to="881058731#1"/>
    <trip id="72" depart="86.40" from="251608797#0" to="-251608797#0"/>
    <trip id="73" depart="87.60" from="25226698#0" to="49674157#2"/>
    <trip id="75" depart="90.00" from="888744725#0" to="25226697#3"/>
    <trip id="77" depart="92.40" from="-25226668#2" to="-251608797#0"/>
    <trip id="81" depart="97.20" from="145398224#0" to="881058731#1"/>
    <trip id="82" depart="98.40" from="888744725#0" to="-145398224#0"/>
    <trip id="83" depart="99.60" from="145398224#0" to="25226697#3"/>
    <trip id="84" depart="100.80" from="145398224#0" to="-145398224#0"/>
    <trip id="86" depart="103.20" from="25226698#0" to="49674157#2"/>
    <trip id="88" depart="105.60" from="-25226668#2" to="25226668#2"/>
    <trip id="89" depart="106.80" from="251608797#0" to="25226668#2"/>
    <trip id="90" depart="108.00" from="49674164#0" to="25226697#3"/>
    <trip id="91" depart="109.20" from="888744725#0" to="-145398224#0"/>
    <trip id="92" depart="110.40" from="251608797#0" to="-25227098#0"/>
    <trip id="95" depart="114.00" from="251608797#0" to="-251608797#0"/>
    <trip id="96" depart="115.20" from="145398224#0" to="881058731#1"/>
    <trip id="97" depart="116.40" from="25226698#0" to="881058731#1"/>
    <trip id="99" depart="118.80" from="888744725#0" to="49674157#2"/>
    <trip id="100" depart="120.00" from="888744725#0" to="881058731#1"/>
    <trip id="105" depart="126.00" from="145398224#0" to="49674157#2"/>
    <trip id="107" depart="128.40" from="888744725#0" to="881058731#1"/>
    <trip id="108" depart="129.60" from="25226698#0" to="49674157#2"/>
    <trip id="110" depart="132.00" from="888744725#0" to="25226697#3"/>
    <trip id="111" depart="133.20" from="25226698#0" to="49674157#2"/>
    <trip id="113" depart="135.60" from="25226698#0" to="49674157#2"/>
    <trip id="114" depart="136.80" from="145398224#0" to="881058731#1"/>
    <trip id="115" depart="138.00" from="-25226668#2" to="-251608797#0"/>
    <trip id="117" depart="140.40" from="145398224#0" to="-145398224#0"/>
    <trip id="121" depart="145.20" from="25226698#0" to="881058731#1"/>
    <trip id="122" depart="146.40" from="145398224#0" to="49674157#2"/>
    <trip id="124" depart="148.80" from="25227098#0" to="-25227098#0"/>
    <trip id="126" depart="151.20" from="-25226668#2" to="25226668#2"/>
    <trip id="127" depart="152.40" from="888744725#0" to="881058731#1"/>
    <trip id="128" depart="153.60" from="-25226668#2" to="-251608797#0"/>
    <trip id="129" depart="154.80" from="145398224#0" to="881058731#1"/>
    <trip id="130" depart="156.00" from="888744725#0" to="881058731#1"/>
    <trip id="131" depart="157.20" from="251608797#0" to="-251608797#0"/>
    <trip id="132" depart="158.40" from="49674164#0" to="25226697#3"/>
    <trip id="138" depart="165.60" from="-25226668#2" to="25226668#2"/>
    <trip id="139" depart="166.80" from="145398224#0" to="25226697#3"/>
    <trip id="141" depart="169.20" from="25227098#0" to="-251608797#0"/>
    <trip id="142" depart="170.40" from="25226698#0" to="881058731#1"/>
    <trip id="144" depart="172.80" from="251608797#0" to="-251608797#0"/>
    <trip id="146" depart="175.20" from="25227098#0" to="-251608797#0"/>
    <trip id="151" depart="181.20" from="49674164#0" to="25226697#3"/>
    <trip id="152" depart="182.40" from="145398224#0" to="-145398224#0"/>
    <trip id="154" depart="184.80" from="49674164#0" to="881058731#1"/>
    <trip id="156" depart="187.20" from="145398224#0" to="-145398224#0"/>
    <trip id="157" depart="188.40" from="49674164#0" to="881058731#1"/>
    <trip id="159" depart="190.80" from="145398224#0" to="881058731#1"/>
    <trip id="160" depart="192.00" from="888744725#0" to="881058731#1"/>
    <trip id="161" depart="193.20" from="49674164#0" to="881058731#1"/>
    <trip id="164" depart="196.80" from="49674164#0" to="881058731#1"/>
    <trip id="167" depart="200.40" from="888744725#0" to="881058731#1"/>
    <trip id="168" depart="201.60" from="145398224#0" to="49674157#2"/>
    <trip id="171" depart="205.20" from="-25226668#2" to="-251608797#0"/>
    <trip id="174" depart="208.80" from="25227098#0" to="-25227098#0"/>
    <trip id="176" depart="211.20" from="888744725#0" to="-145398224#0"/>
    <trip id="179" depart="214.80" from="-25226668#2" to="25226668#2"/>
    <trip id="181" depart="217.20" from="25227098#0" to="25226668#2"/>
    <trip id="183" depart="219.60" from="145398224#0" to="25226697#3"/>
    <trip id="185" depart="222.00" from="25226698#0" to="49674157#2"/>
    <trip id="186" depart="223.20" from="49674164#0" to="25226697#3"/>
    <trip id="188" depart="225.60" from="25227098#0" to="-25227098#0"/>
    <trip id="191" depart="229.20" from="251608797#0" to="-25227098#0"/>
    <trip id="192" depart="230.40" from="251608797#0" to="-25227098#0"/>
    <trip id="193" depart="231.60" from="-25226668#2" to="-25227098#0"/>
    <trip id="194" depart="232.80" from="888744725#0" to="25226697#3"/>
    <trip id="195" depart="234.00" from="888744725#0" to="25226697#3"/>
    <trip id="196" depart="235.20" from="251608797#0" to="25226668#2"/>
    <trip id="197" depart="236.40" from="-25226668#2" to="-25227098#0"/>
    <trip id="198" depart="237.60" from="25226698#0" to="25226697#3"/>
    <trip id="199" depart="238.80" from="25227098#0" to="25226668#2"/>
    <trip id="201" depart="241.20" from="25226698#0" to="881058731#1"/>
    <trip id="203" depart="243.60" from="-25226668#2" to="25226668#2"/>
    <trip id="204" depart="244.80" from="25227098#0" to="-25227098#0"/>
    <trip id="205" depart="246.00" from="49674164#0" to="49674157#2"/>
    <trip id="206" depart="247.20" from="25227098#0" to="-251608797#0"/>
    <trip id="207" depart="248.40" from="145398224#0" to="-145398224#0"/>
    <trip id="211" depart="253.20" from="145398224#0" to="25226697#3"/>
    <trip id="214" depart="256.80" from="49674164#0" to="49674157#2"/>
    <trip id="215" depart="258.00" from="-25226668#2" to="-25227098#0"/>
    <trip id="216" depart="259.20" from="145398224#0" to="881058731#1"/>
    <trip id="218" depart="261.60" from="145398224#0" to="49674157#2"/>
    <trip id="219" depart="262.80" from="25226698#0" to="49674157#2"/>
    <trip id="222" depart="266.40" from="888744725#0" to="25226697#3"/>
    <trip id="225" depart="270.00" from="888744725#0" to="49674157#2"/>
    <trip id="227" depart="272.40" from="145398224#0" to="25226697#3"/>
    <trip id="229" depart="274.80" from="25227098#0" to="-251608797#0"/>
    <trip id="230" depart="276.00" from="-25226668#2" to="-25227098#0"/>
    <trip id="233" depart="279.60" from="145398224#0" to="25226697#3"/>
    <trip id="235" depart="282.00" from="251608797#0" to="25226668#2"/>
    <trip id="236" depart="283.20" from="251608797#0" to="-251608797#0"/>
    <trip id="239" depart="286.80" from="49674164#0" to="49674157#2"/>
    <trip id="242" depart="290.40" from="49674164#0" to="881058731#1"/>
    <trip id="244" depart="292.80" from="25226698#0" to="25226697#3"/>
    <trip id="248" depart="297.60" from="251608797#0" to="-251608797#0"/>
    <trip id="251" depart="301.20" from="251608797#0" to="25226668#2"/>
    <trip id="253" depart="303.60" from="-25226668#2" to="25226668#2"/>
    <trip id="254" depart="304.80" from="-25226668#2" to="-25227098#0"/>
    <trip id="257" depart="308.40" from="49674164#0" to="49674157#2"/>
    <trip id="258" depart="309.60" from="145398224#0" to="-145398224#0"/>
    <trip id="259" depart="310.80" from="-25226668#2" to="25226668#2"/>
    <trip id="264" depart="316.80" from="-25226668#2" to="-251608797#0"/>
    <trip id="268" depart="321.60" from="145398224#0" to="25226697#3"/>
    <trip id="270" depart="324.00" from="49674164#0" to="881058731#1"/>
    <trip id="277" depart="332.40" from="49674164#0" to="25226697#3"/>
    <trip id="280" depart="336.00" from="251608797#0" to="-25227098#0"/>
    <trip id="282" depart="338.40" from="49674164#0" to="49674157#2"/>
    <trip id="285" depart="342.00" from="25227098#0" to="25226668#2"/>
    <trip id="286" depart="343.20" from="49674164#0" to="881058731#1"/>
    <trip id="287" depart="344.40" from="145398224#0" to="49674157#2"/>
    <trip id="289" depart="346.80" from="25226698#0" to="49674157#2"/>
    <trip id="290" depart="348.00" from="145398224#0" to="49674157#2"/>
    <trip id="293" depart="351.60" from="25226698#0" to="25226697#3"/>
    <trip id="296" depart="355.20" from="145398224#0" to="49674157#2"/>
    <trip id="298" depart="357.60" from="25227098#0" to="-251608797#0"/>
    <trip id="301" depart="361.20" from="25226698#0" to="49674157#2"/>
    <trip id="303" depart="363.60" from="25226698#0" to="49674157#2"/>
    <trip id="304" depart="364.80" from="-25226668#2" to="-251608797#0"/>
    <trip id="305" depart="366.00" from="25227098#0" to="-25227098#0"/>
    <trip id="306" depart="367.20" from="25227098#0" to="25226668#2"/>
    <trip id="309" depart="370.80" from="25227098#0" to="-251608797#0"/>
    <trip id="310" depart="372.00" from="145398224#0" to="-145398224#0"/>
    <trip id="311" depart="373.20" from="145398224#0" to="-145398224#0"/>
    <trip id="312" depart="374.40" from="25226698#0" to="49674157#2"/>
    <trip id="314" depart="376.80" from="25226698#0" to="49674157#2"/>
    <trip id="316" depart="379.20" from="145398224#0" to="-145398224#0"/>
    <trip id="318" depart="381.60" from="145398224#0" to="-145398224#0"/>
    <trip id="323" depart="387.60" from="888744725#0" to="25226697#3"/>
    <trip id="325" depart="390.00" from="145398224#0" to="-145398224#0"/>
    <trip id="329" depart="394.80" from="-25226668#2" to="-251608797#0"/>
    <trip id="331" depart="397.20" from="888744725#0" to="-145398224#0"/>
    <trip id="332" depart="398.40" from="49674164#0" to="25226697#3"/>
    <trip id="335" depart="402.00" from="25226698#0" to="881058731#1"/>
    <trip id="338" depart="405.60" from="49674164#0" to="881058731#1"/>
    <trip id="340" depart="408.00" from="25227098#0" to="-251608797#0"/>
    <trip id="341" depart="409.20" from="145398224#0" to="-145398224#0"/>
    <trip id="342" depart="410.40" from="-25226668#2" to="25226668#2"/>
    <trip id="343" depart="411.60" from="25227098#0" to="-25227098#0"/>
    <trip id="344" depart="412.80" from="145398224#0" to="25226697#3"/>
    <trip id="345" depart="414.00" from="25227098#0" to="25226668#2"/>
    <trip id="347" depart="416.40" from="49674164#0" to="25226697#3"/>
    <trip id="349" depart="418.80" from="251608797#0" to="25226668#2"/>
    <trip id="358" depart="429.60" from="-25226668#2" to="25226668#2"/>
    <trip id="359" depart="430.80" from="251608797#0" to="-251608797#0"/>
    <trip id="361" depart="433.20" from="49674164#0" to="25226697#3"/>
    <trip id="362" depart="434.40" from="888744725#0" to="881058731#1"/>
    <trip id="363" depart="435.60" from="25227098#0" to="-251608797#0"/>
    <trip id="365" depart="438.00" from="25226698#0" to="25226697#3"/>
    <trip id="369" depart="442.80" from="251608797#0" to="-25227098#0"/>
    <trip id="376" depart="451.20" from="251608797#0" to="25226668#2"/>
    <trip id="377" depart="452.40" from="888744725#0" to="25226697#3"/>
    <trip id="380" depart="456.00" from="49674164#0" to="25226697#3"/>
    <trip id="382" depart="458.40" from="25226698#0" to="881058731#1"/>
    <trip id="383" depart="459.60" from="25226698#0" to="25226697#3"/>
    <trip id="385" depart="462.00" from="25227098#0" to="-251608797#0"/>
    <trip id="388" depart="465.60" from="888744725#0" to="881058731#1"/>
    <trip id="392" depart="470.40" from="145398224#0" to="49674157#2"/>
    <trip id="396" depart="475.20" from="888744725#0" to="881058731#1"/>
    <trip id="397" depart="476.40" from="145398224#0" to="49674157#2"/>
    <trip id="399" depart="478.80" from="25226698#0" to="49674157#2"/>
    <trip id="406" depart="487.20" from="145398224#0" to="25226697#3"/>
    <trip id="407" depart="488.40" from="25227098#0" to="-251608797#0"/>
    <trip id="409" depart="490.80" from="49674164#0" to="25226697#3"/>
    <trip id="413" depart="495.60" from="-25226668#2" to="25226668#2"/>
    <trip id="418" depart="501.60" from="25227098#0" to="-251608797#0"/>
    <trip id="419" depart="502.80" from="25226698#0" to="881058731#1"/>
    <trip id="422" depart="506.40" from="49674164#0" to="881058731#1"/>
    <trip id="423" depart="507.60" from="251608797#0" to="-25227098#0"/>
    <trip id="424" depart="508.80" from="49674164#0" to="49674157#2"/>
    <trip id="425" depart="510.00" from="888744725#0" to="-145398224#0"/>
    <trip id="427" depart="512.40" from="888744725#0" to="881058731#1"/>
    <trip id="433" depart="519.60" from="251608797#0" to="-25227098#0"/>
    <trip id="435" depart="522.00" from="25226698#0" to="49674157#2"/>
    <trip id="436" depart="523.20" from="145398224#0" to="-145398224#0"/>
    <trip id="437" depart="524.40" from="888744725#0" to="25226697#3"/>
    <trip id="438" depart="525.60" from="145398224#0" to="881058731#1"/>
    <trip id="442" depart="530.40" from="888744725#0" to="25226697#3"/>
    <trip id="445" depart="534.00" from="25227098#0" to="-25227098#0"/>
    <trip id="446" depart="535.20" from="145398224#0" to="49674157#2"/>
    <trip id="451" depart="541.20" from="888744725#0" to="25226697#3"/>
    <trip id="455" depart="546.00" from="25226698#0" to="881058731#1"/>
    <trip id="457" depart="548.40" from="25227098#0" to="-25227098#0"/>
    <trip id="462" depart="554.40" from="25227098#0" to="-25227098#0"/>
    <trip id="463" depart="555.60" from="25226698#0" to="25226697#3"/>
    <trip id="466" depart="559.20" from="145398224#0" to="-145398224#0"/>
    <trip id="467" depart="560.40" from="25226698#0" to="881058731#1"/>
    <trip id="468" depart="561.60" from="25226698#0" to="881058731#1"/>
    <trip id="471" depart="565.20" from="49674164#0" to="49674157#2"/>
    <trip id="473" depart="567.60" from="888744725#0" to="-145398224#0"/>
    <trip id="474" depart="568.80" from="888744725#0" to="881058731#1"/>
    <trip id="475" depart="570.00" from="49674164#0" to="881058731#1"/>
    <trip id="476" depart="571.20" from="888744725#0" to="49674157#2"/>
    <trip id="478" depart="573.60" from="-25226668#2" to="25226668#2"/>
    <trip id="479" depart="574.80" from="25226698#0" to="25226697#3"/>
    <trip id="481" depart="577.20" from="49674164#0" to="881058731#1"/>
    <trip id="482" depart="578.40" from="-25226668#2" to="-251608797#0"/>
    <trip id="484" depart="580.80" from="25226698#0" to="881058731#1"/>
    <trip id="485" depart="582.00" from="145398224#0" to="-145398224#0"/>
    <trip id="486" depart="583.20" from="49674164#0" to="881058731#1"/>
    <trip id="487" depart="584.40" from="251608797#0" to="-25227098#0"/>
    <trip id="489" depart="586.80" from="251608797#0" to="25226668#2"/>
    <trip id="491" depart="589.20" from="-25226668#2" to="25226668#2"/>
    <trip id="497" depart="596.40" from="888744725#0" to="-145398224#0"/>
    <trip id="498" depart="597.60" from="251608797#0" to="25226668#2"/>
    <trip id="499" depart="598.80" from="888744725#0" to="49674157#2"/>
    <trip id="501" depart="601.20" from="25226698#0" to="881058731#1"/>
    <trip id="502" depart="602.40" from="251608797#0" to="-25227098#0"/>
    <trip id="503" depart="603.60" from="145398224#0" to="-145398224#0"/>
    <trip id="508" depart="609.60" from="-25226668#2" to="25226668#2"/>
    <trip id="512" depart="614.40" from="145398224#0" to="881058731#1"/>
    <trip id="514" depart="616.80" from="145398224#0" to="-145398224#0"/>
    <trip id="519" depart="622.80" from="145398224#0" to="-145398224#0"/>
    <trip id="523" depart="627.60" from="-25226668#2" to="25226668#2"/>
    <trip id="524" depart="628.80" from="888744725#0" to="-145398224#0"/>
    <trip id="525" depart="630.00" from="49674164#0" to="881058731#1"/>
    <trip id="527" depart="632.40" from="888744725#0" to="-145398224#0"/>
    <trip id="529" depart="634.80" from="25227098#0" to="25226668#2"/>
    <trip id="530" depart="636.00" from="888744725#0" to="-145398224#0"/>
    <trip id="532" depart="638.40" from="-25226668#2" to="-251608797#0"/>
    <trip id="533" depart="639.60" from="25227098#0" to="25226668#2"/>
    <trip id="541" depart="649.20" from="251608797#0" to="25226668#2"/>
    <trip id="544" depart="652.80" from="251608797#0" to="-251608797#0"/>
    <trip id="545" depart="654.00" from="888744725#0" to="-145398224#0"/>
    <trip id="549" depart="658.80" from="25227098#0" to="25226668#2"/>
    <trip id="552" depart="662.40" from="49674164#0" to="881058731#1"/>
    <trip id="553" depart="663.60" from="49674164#0" to="881058731#1"/>
    <trip id="554" depart="664.80" from="25227098#0" to="-25227098#0"/>
    <trip id="555" depart="666.00" from="25227098#0" to="-251608797#0"/>
    <trip id="556" depart="667.20" from="25227098#0" to="-251608797#0"/>
    <trip id="560" depart="672.00" from="49674164#0" to="881058731#1"/>
    <trip id="561" depart="673.20" from="49674164#0" to="25226697#3"/>
    <trip id="563" depart="675.60" from="888744725#0" to="49674157#2"/>
    <trip id="565" depart="678.00" from="25227098#0" to="-25227098#0"/>
    <trip id="571" depart="685.20" from="251608797#0" to="-25227098#0"/>
    <trip id="575" depart="690.00" from="145398224#0" to="25226697#3"/>
    <trip id="576" depart="691.20" from="25227098#0" to="-251608797#0"/>
    <trip id="577" depart="692.40" from="25227098#0" to="25226668#2"/>
    <trip id="581" depart="697.20" from="25227098#0" to="25226668#2"/>
    <trip id="584" depart="700.80" from="-25226668#2" to="-25227098#0"/>
    <trip id="585" depart="702.00" from="145398224#0" to="-145398224#0"/>
    <trip id="589" depart="706.80" from="25227098#0" to="25226668#2"/>
    <trip id="590" depart="708.00" from="49674164#0" to="49674157#2"/>
    <trip id="593" depart="711.60" from="888744725#0" to="881058731#1"/>
    <trip id="595" depart="714.00" from="25227098#0" to="-25227098#0"/>
    <trip id="599" depart="718.80" from="888744725#0" to="-145398224#0"/>
    <trip id="601" depart="721.20" from="25227098#0" to="25226668#2"/>
    <trip id="602" depart="722.40" from="251608797#0" to="-25227098#0"/>
    <trip id="603" depart="723.60" from="251608797#0" to="-25227098#0"/>
    <trip id="605" depart="726.00" from="-25226668#2" to="25226668#2"/>
    <trip id="607" depart="728.40" from="49674164#0" to="49674157#2"/>
    <trip id="611" depart="733.20" from="25227098#0" to="-251608797#0"/>
    <trip id="613" depart="735.60" from="49674164#0" to="49674157#2"/>
    <trip id="614" depart="736.80" from="25226698#0" to="881058731#1"/>
    <trip id="615" depart="738.00" from="25226698#0" to="25226697#3"/>
    <trip id="617" depart="740.40" from="25227098#0" to="-251608797#0"/>
    <trip id="618" depart="741.60" from="-25226668#2" to="25226668#2"/>
    <trip id="619" depart="742.80" from="251608797#0" to="-251608797#0"/>
    <trip id="620" depart="744.00" from="-25226668#2" to="25226668#2"/>
    <trip id="621" depart="745.20" from="251608797#0" to="25226668#2"/>
    <trip id="624" depart="748.80" from="49674164#0" to="25226697#3"/>
    <trip id="626" depart="751.20" from="25226698#0" to="49674157#2"/>
    <trip id="628" depart="753.60" from="49674164#0" to="25226697#3"/>
    <trip id="629" depart="754.80" from="251608797#0" to="25226668#2"/>
    <trip id="630" depart="756.00" from="145398224#0" to="-145398224#0"/>
    <trip id="639" depart="766.80" from="49674164#0" to="25226697#3"/>
    <trip id="641" depart="769.20" from="25227098#0" to="-251608797#0"/>
    <trip id="642" depart="770.40" from="49674164#0" to="25226697#3"/>
    <trip id="643" depart="771.60" from="888744725#0" to="881058731#1"/>
    <trip id="645" depart="774.00" from="-25226668#2" to="-25227098#0"/>
    <trip id="646" depart="775.20" from="888744725#0" to="25226697#3"/>
    <trip id="650" depart="780.00" from="49674164#0" to="25226697#3"/>
    <trip id="651" depart="781.20" from="49674164#0" to="49674157#2"/>
    <trip id="652" depart="782.40" from="25227098#0" to="25226668#2"/>
    <trip id="653" depart="783.60" from="25227098#0" to="-25227098#0"/>
    <trip id="654" depart="784.80" from="251608797#0" to="-25227098#0"/>
    <trip id="657" depart="788.40" from="145398224#0" to="-145398224#0"/>
    <trip id="660" depart="792.00" from="49674164#0" to="881058731#1"/>
    <trip id="661" depart="793.20" from="-25226668#2" to="-25227098#0"/>
    <trip id="663" depart="795.60" from="251608797#0" to="-251608797#0"/>
    <trip id="664" depart="796.80" from="49674164#0" to="49674157#2"/>
    <trip id="667" depart="800.40" from="25227098#0" to="-251608797#0"/>
    <trip id="673" depart="807.60" from="888744725#0" to="881058731#1"/>
    <trip id="675" depart="810.00" from="251608797#0" to="25226668#2"/>
    <trip id="676" depart="811.20" from="888744725#0" to="49674157#2"/>
    <trip id="678" depart="813.60" from="145398224#0" to="25226697#3"/>
    <trip id="684" depart="820.80" from="25226698#0" to="881058731#1"/>
    <trip id="687" depart="824.40" from="-25226668#2" to="25226668#2"/>
    <trip id="688" depart="825.60" from="145398224#0" to="881058731#1"/>
    <trip id="690" depart="828.00" from="888744725#0" to="49674157#2"/>
    <trip id="692" depart="830.40" from="-25226668#2" to="-25227098#0"/>
    <trip id="693" depart="831.60" from="49674164#0" to="25226697#3"/>
    <trip id="696" depart="835.20" from="-25226668#2" to="-251608797#0"/>
    <trip id="699" depart="838.80" from="-25226668#2" to="-25227098#0"/>
    <trip id="703" depart="843.60" from="888744725#0" to="25226697#3"/>
    <trip id="704" depart="844.80" from="-25226668#2" to="25226668#2"/>
    <trip id="706" depart="847.20" from="25226698#0" to="25226697#3"/>
    <trip id="709" depart="850.80" from="888744725#0" to="-145398224#0"/>
    <trip id="712" depart="854.40" from="251608797#0" to="25226668#2"/>
    <trip id="714" depart="856.80" from="145398224#0" to="-145398224#0"/>
    <trip id="716" depart="859.20" from="49674164#0" to="25226697#3"/>
    <trip id="717" depart="860.40" from="49674164#0" to="49674157#2"/>
    <trip id="719" depart="862.80" from="25226698#0" to="49674157#2"/>
    <trip id="720" depart="864.00" from="145398224#0" to="49674157#2"/>
    <trip id="721" depart="865.20" from="25226698#0" to="25226697#3"/>
    <trip id="725" depart="870.00" from="-25226668#2" to="-251608797#0"/>
    <trip id="727" depart="872.40" from="25226698#0" to="881058731#1"/>
    <trip id="732" depart="878.40" from="-25226668#2" to="-25227098#0"/>
    <trip id="733" depart="879.60" from="888744725#0" to="49674157#2"/>
    <trip id="736" depart="883.20" from="25226698#0" to="881058731#1"/>
    <trip id="737" depart="884.40" from="25226698#0" to="49674157#2"/>
    <trip id="747" depart="896.40" from="888744725#0" to="881058731#1"/>
    <trip id="754" depart="904.80" from="251608797#0" to="-25227098#0"/>
    <trip id="755" depart="906.00" from="25226698#0" to="25226697#3"/>
    <trip id="758" depart="909.60" from="25227098#0" to="25226668#2"/>
    <trip id="760" depart="912.00" from="145398224#0" to="-145398224#0"/>
    <trip id="762" depart="914.40" from="251608797#0" to="25226668#2"/>
    <trip id="764" depart="916.80" from="25226698#0" to="881058731#1"/>
    <trip id="765" depart="918.00" from="145398224#0" to="881058731#1"/>
    <trip id="772" depart="926.40" from="25226698#0" to="881058731#1"/>
    <trip id="773" depart="927.60" from="49674164#0" to="25226697#3"/>
    <trip id="774" depart="928.80" from="888744725#0" to="25226697#3"/>
    <trip id="776" depart="931.20" from="-25226668#2" to="-251608797#0"/>
    <trip id="778" depart="933.60" from="-25226668#2" to="25226668#2"/>
    <trip id="780" depart="936.00" from="25226698#0" to="25226697#3"/>
    <trip id="781" depart="937.20" from="-25226668#2" to="-25227098#0"/>
    <trip id="782" depart="938.40" from="888744725#0" to="49674157#2"/>
    <trip id="783" depart="939.60" from="25226698#0" to="49674157#2"/>
    <trip id="785" depart="942.00" from="888744725#0" to="25226697#3"/>
    <trip id="786" depart="943.20" from="25226698#0" to="25226697#3"/>
    <trip id="788" depart="945.60" from="49674164#0" to="25226697#3"/>
    <trip id="789" depart="946.80" from="145398224#0" to="881058731#1"/>
    <trip id="790" depart="948.00" from="25226698#0" to="881058731#1"/>
    <trip id="795" depart="954.00" from="888744725#0" to="49674157#2"/>
    <trip id="796" depart="955.20" from="145398224#0" to="25226697#3"/>
    <trip id="798" depart="957.60" from="251608797#0" to="25226668#2"/>
    <trip id="803" depart="963.60" from="25226698#0" to="49674157#2"/>
    <trip id="808" depart="969.60" from="25226698#0" to="25226697#3"/>
    <trip id="810" depart="972.00" from="25226698#0" to="49674157#2"/>
    <trip id="811" depart="973.20" from="25227098#0" to="-25227098#0"/>
    <trip id="814" depart="976.80" from="145398224#0" to="25226697#3"/>
    <trip id="816" depart="979.20" from="49674164#0" to="881058731#1"/>
    <trip id="817" depart="980.40" from="888744725#0" to="-145398224#0"/>
    <trip id="818" depart="981.60" from="251608797#0" to="25226668#2"/>
    <trip id="819" depart="982.80" from="251608797#0" to="25226668#2"/>
    <trip id="821" depart="985.20" from="-25226668#2" to="-25227098#0"/>
    <trip id="823" depart="987.60" from="145398224#0" to="881058731#1"/>
    <trip id="825" depart="990.00" from="25227098#0" to="-25227098#0"/>
    <trip id="832" depart="998.40" from="25226698#0" to="881058731#1"/>
    <trip id="833" depart="999.60" from="25227098#0" to="25226668#2"/>
    <trip id="834" depart="1000.80" from="25226698#0" to="49674157#2"/>
    <trip id="835" depart="1002.00" from="25226698#0" to="881058731#1"/>
    <trip id="836" depart="1003.20" from="49674164#0" to="49674157#2"/>
    <trip id="837" depart="1004.40" from="251608797#0" to="-25227098#0"/>