<?xml version="1.0" encoding="UTF-8"?>

<!-- generated on 2024-09-03 01:38:02 by Eclipse SUMO duarouter Version 1.20.0
<configuration xmlns:xsi="http://www.w3.org/2001/XMLSchema-instance" xsi:noNamespaceSchemaLocation="http://sumo.dlr.de/xsd/duarouterConfiguration.xsd">

    <input>
        <net-file value="train_files/roundabout/middle/outputs/map(90)_dict/map(90)/map(90).net.xml"/>
        <route-files value="train_files/roundabout/middle/outputs/map(90)_dict/map(90)/map(90).trips.xml"/>
    </input>

    <output>
        <output-file value="train_files/roundabout/middle/outputs/map(90)_dict/map(90)/map(90).rou.xml"/>
    </output>

    <report>
        <ignore-errors value="true"/>
    </report>

</configuration>
-->

<routes xmlns:xsi="http://www.w3.org/2001/XMLSchema-instance" xsi:noNamespaceSchemaLocation="http://sumo.dlr.de/xsd/routes_file.xsd">
    <vehicle id="2" depart="2.40">
        <route edges="49674164#0 49674164#1 49674164#2 279127900 279127898 25226689 25226697#0 25226697#1 25226697#2 25226697#3"/>
    </vehicle>
    <vehicle id="3" depart="3.60">
        <route edges="888744725#0 -145398224#1 -145398224#0"/>
    </vehicle>
    <vehicle id="6" depart="7.20">
        <route edges="-25226668#2 -25226668#1 -25226668#0 -251608797#1 -251608797#0"/>
    </vehicle>
    <vehicle id="7" depart="8.40">
        <route edges="25227098#0 25226668#2"/>
    </vehicle>
    <vehicle id="8" depart="9.60">
        <route edges="145398224#0 145398224#1 888744725#1 881058730#0 881058730#1 881058730#2 25226689 25226697#0 25226697#1 25226697#2 25226697#3"/>
    </vehicle>
    <vehicle id="10" depart="12.00">
        <route edges="49674164#0 49674164#1 49674164#2 279127900 279127898 25226689 25226697#0 25226697#1 25226697#2 25226697#3"/>
    </vehicle>
    <vehicle id="11" depart="13.20">
        <route edges="251608797#0 251608797#1 25226668#0 25226668#1 -25226668#1 -25226668#0 -251608797#1 -251608797#0"/>
    </vehicle>
    <vehicle id="14" depart="16.80">
        <route edges="49674164#0 49674164#1 49674164#2 279127900 279127898 25226689 25226697#0 25226697#1 25226697#2 25226697#3"/>
    </vehicle>
    <vehicle id="15" depart="18.00">
        <route edges="49674164#0 49674164#1 49674164#2 279127900 279127898 25226689 279127902 279127897 25226709#0 25226709#1 25226709#2 670045142 49674157#0 49674157#1 49674157#2"/>
    </vehicle>
    <vehicle id="16" depart="19.20">
        <route edges="25226698#0 25226698#1 25226698#2 279127897 279127901 279127900 25226433#0 25226433#1 881058731#0 881058731#1"/>
    </vehicle>
    <vehicle id="17" depart="20.40">
        <route edges="251608797#0 251608797#1 25226668#0 25226668#1 25226668#2"/>
    </vehicle>
    <vehicle id="18" depart="21.60">
        <route edges="49674164#0 49674164#1 49674164#2 279127900 279127898 25226689 25226697#0 25226697#1 25226697#2 25226697#3"/>
    </vehicle>
    <vehicle id="19" depart="22.80">
        <route edges="888744725#0 888744725#1 881058730#0 881058730#1 881058730#2 25226689 25226697#0 25226697#1 25226697#2 25226697#3"/>
    </vehicle>
    <vehicle id="22" depart="26.40">
        <route edges="-25226668#2 -25226668#1 -25226668#0 -251608797#1 -251608797#0"/>
    </vehicle>
    <vehicle id="23" depart="27.60">
        <route edges="-25226668#2 -25226668#1 -25226668#0 -251608797#1 -251608797#0"/>
    </vehicle>
    <vehicle id="24" depart="28.80">
        <route edges="25227098#0 -25227098#0"/>
    </vehicle>
    <vehicle id="25" depart="30.00">
        <route edges="251608797#0 251608797#1 25226668#0 25226668#1 -25226668#1 -25226668#0 -251608797#1 -251608797#0"/>
    </vehicle>
    <vehicle id="26" depart="31.20">
        <route edges="145398224#0 145398224#1 888744725#1 881058730#0 881058730#1 881058730#2 25226689 279127902 279127897 279127901 279127900 25226433#0 25226433#1 881058731#0 881058731#1"/>
    </vehicle>
    <vehicle id="28" depart="33.60">
        <route edges="145398224#0 145398224#1 888744725#1 881058730#0 881058730#1 881058730#2 25226689 279127902 279127897 25226709#0 25226709#1 25226709#2 670045142 49674157#0 49674157#1 49674157#2"/>
    </vehicle>
    <vehicle id="30" depart="36.00">
        <route edges="888744725#0 888744725#1 881058730#0 881058730#1 881058730#2 25226689 25226697#0 25226697#1 25226697#2 25226697#3"/>
    </vehicle>
    <vehicle id="31" depart="37.20">
        <route edges="25226698#0 25226698#1 25226698#2 279127897 279127901 279127900 279127898 25226689 25226697#0 25226697#1 25226697#2 25226697#3"/>
    </vehicle>
    <vehicle id="32" depart="38.40">
        <route edges="49674164#0 49674164#1 49674164#2 279127900 279127898 25226689 279127902 279127897 25226709#0 25226709#1 25226709#2 670045142 49674157#0 49674157#1 49674157#2"/>
    </vehicle>
    <vehicle id="33" depart="39.60">
        <route edges="145398224#0 145398224#1 -145398224#1 -145398224#0"/>
    </vehicle>
    <vehicle id="34" depart="40.80">
        <route edges="251608797#0 251608797#1 25226668#0 25226668#1 -25226668#1 -25226668#0 -251608797#1 -251608797#0"/>
    </vehicle>
    <vehicle id="35" depart="42.00">
        <route edges="145398224#0 145398224#1 888744725#1 881058730#0 881058730#1 881058730#2 25226689 279127902 279127897 279127901 279127900 25226433#0 25226433#1 881058731#0 881058731#1"/>
    </vehicle>
    <vehicle id="37" depart="44.40">
        <route edges="25227098#0 -25227098#0"/>
    </vehicle>
    <vehicle id="42" depart="50.40">
        <route edges="251608797#0 251608797#1 25226668#0 25226668#1 -25226668#1 -25226668#0 -251608797#1 -251608797#0"/>
    </vehicle>
    <vehicle id="47" depart="56.40">
        <route edges="-25226668#2 -25227098#0"/>
    </vehicle>
    <vehicle id="49" depart="58.80">
        <route edges="888744725#0 888744725#1 881058730#0 881058730#1 881058730#2 25226689 279127902 279127897 279127901 279127900 25226433#0 25226433#1 881058731#0 881058731#1"/>
    </vehicle>
    <vehicle id="51" depart="61.20">
        <route edges="25227098#0 25226668#2"/>
    </vehicle>
    <vehicle id="52" depart="62.40">
        <route edges="145398224#0 145398224#1 888744725#1 881058730#0 881058730#1 881058730#2 25226689 25226697#0 25226697#1 25226697#2 25226697#3"/>
    </vehicle>
    <vehicle id="53" depart="63.60">
        <route edges="-25226668#2 25226668#2"/>
    </vehicle>
    <vehicle id="54" depart="64.80">
        <route edges="25226698#0 25226698#1 25226698#2 279127897 279127901 279127900 25226433#0 25226433#1 881058731#0 881058731#1"/>
    </vehicle>
    <vehicle id="57" depart="68.40">
        <route edges="888744725#0 888744725#1 881058730#0 881058730#1 881058730#2 25226689 279127902 279127897 279127901 279127900 25226433#0 25226433#1 881058731#0 881058731#1"/>
    </vehicle>
    <vehicle id="59" depart="70.80">
        <route edges="25227098#0 -25226668#1 -25226668#0 -251608797#1 -251608797#0"/>
    </vehicle>
    <vehicle id="62" depart="74.40">
        <route edges="-25226668#2 -25227098#0"/>
    </vehicle>
    <vehicle id="64" depart="76.80">
        <route edges="888744725#0 888744725#1 881058730#0 881058730#1 881058730#2 25226689 279127902 279127897 25226709#0 25226709#1 25226709#2 670045142 49674157#0 49674157#1 49674157#2"/>
    </vehicle>
    <vehicle id="66" depart="79.20">
        <route edges="888744725#0 888744725#1 881058730#0 881058730#1 881058730#2 25226689 279127902 279127897 279127901 279127900 25226433#0 25226433#1 881058731#0 881058731#1"/>
    </vehicle>
    <vehicle id="67" depart="80.40">
        <route edges="-25226668#2 25226668#2"/>
    </vehicle>
    <vehicle id="71" depart="85.20">
        <route edges="145398224#0 145398224#1 888744725#1 881058730#0 881058730#1 881058730#2 25226689 279127902 279127897 279127901 279127900 25226433#0 25226433#1 881058731#0 881058731#1"/>
    </vehicle>
    <vehicle id="72" depart="86.40">
        <route edges="251608797#0 251608797#1 25226668#0 25226668#1 -25226668#1 -25226668#0 -251608797#1 -251608797#0"/>
    </vehicle>
    <vehicle id="73" depart="87.60">
        <route edges="25226698#0 25226698#1 25226698#2 279127897 25226709#0 25226709#1 25226709#2 670045142 49674157#0 49674157#1 49674157#2"/>
    </vehicle>
    <vehicle id="75" depart="90.00">
        <route edges="888744725#0 888744725#1 881058730#0 881058730#1 881058730#2 25226689 25226697#0 25226697#1 25226697#2 25226697#3"/>
    </vehicle>
    <vehicle id="77" depart="92.40">
        <route edges="-25226668#2 -25226668#1 -25226668#0 -251608797#1 -251608797#0"/>
    </vehicle>
    <vehicle id="81" depart="97.20">
        <route edges="145398224#0 145398224#1 888744725#1 881058730#0 881058730#1 881058730#2 25226689 279127902 279127897 279127901 279127900 25226433#0 25226433#1 881058731#0 881058731#1"/>
    </vehicle>
    <vehicle id="82" depart="98.40">
        <route edges="888744725#0 -145398224#1 -145398224#0"/>
    </vehicle>
    <vehicle id="83" depart="99.60">
        <route edges="145398224#0 145398224#1 888744725#1 881058730#0 881058730#1 881058730#2 25226689 25226697#0 25226697#1 25226697#2 25226697#3"/>
    </vehicle>
    <vehicle id="84" depart="100.80">
        <route edges="145398224#0 145398224#1 -145398224#1 -145398224#0"/>
    </vehicle>
    <vehicle id="86" depart="103.20">
        <route edges="25226698#0 25226698#1 25226698#2 279127897 25226709#0 25226709#1 25226709#2 670045142 49674157#0 49674157#1 49674157#2"/>
    </vehicle>
    <vehicle id="88" depart="105.60">
        <route edges="-25226668#2 25226668#2"/>
    </vehicle>
    <vehicle id="89" depart="106.80">
        <route edges="251608797#0 251608797#1 25226668#0 25226668#1 25226668#2"/>
    </vehicle>
    <vehicle id="90" depart="108.00">
        <route edges="49674164#0 49674164#1 49674164#2 279127900 279127898 25226689 25226697#0 25226697#1 25226697#2 25226697#3"/>
    </vehicle>
    <vehicle id="91" depart="109.20">
        <route edges="888744725#0 -145398224#1 -145398224#0"/>
    </vehicle>
    <vehicle id="92" depart="110.40">
        <route edges="251608797#0 251608797#1 25226668#0 25226668#1 -25227098#0"/>
    </vehicle>
    <vehicle id="95" depart="114.00">
        <route edges="251608797#0 251608797#1 25226668#0 25226668#1 -25226668#1 -25226668#0 -251608797#1 -251608797#0"/>
    </vehicle>
    <vehicle id="96" depart="115.20">
        <route edges="145398224#0 145398224#1 888744725#1 881058730#0 881058730#1 881058730#2 25226689 279127902 279127897 279127901 279127900 25226433#0 25226433#1 881058731#0 881058731#1"/>
    </vehicle>
    <vehicle id="97" depart="116.40">
        <route edges="25226698#0 25226698#1 25226698#2 279127897 279127901 279127900 25226433#0 25226433#1 881058731#0 881058731#1"/>
    </vehicle>
    <vehicle id="99" depart="118.80">
        <route edges="888744725#0 888744725#1 881058730#0 881058730#1 881058730#2 25226689 279127902 279127897 25226709#0 25226709#1 25226709#2 670045142 49674157#0 49674157#1 49674157#2"/>
    </vehicle>
    <vehicle id="100" depart="120.00">
        <route edges="888744725#0 888744725#1 881058730#0 881058730#1 881058730#2 25226689 279127902 279127897 279127901 279127900 25226433#0 25226433#1 881058731#0 881058731#1"/>
    </vehicle>
    <vehicle id="105" depart="126.00">
        <route edges="145398224#0 145398224#1 888744725#1 881058730#0 881058730#1 881058730#2 25226689 279127902 279127897 25226709#0 25226709#1 25226709#2 670045142 49674157#0 49674157#1 49674157#2"/>
    </vehicle>
    <vehicle id="107" depart="128.40">
        <route edges="888744725#0 888744725#1 881058730#0 881058730#1 881058730#2 25226689 279127902 279127897 279127901 279127900 25226433#0 25226433#1 881058731#0 881058731#1"/>
    </vehicle>
    <vehicle id="108" depart="129.60">
        <route edges="25226698#0 25226698#1 25226698#2 279127897 25226709#0 25226709#1 25226709#2 670045142 49674157#0 49674157#1 49674157#2"/>
    </vehicle>
    <vehicle id="110" depart="132.00">
        <route edges="888744725#0 888744725#1 881058730#0 881058730#1 881058730#2 25226689 25226697#0 25226697#1 25226697#2 25226697#3"/>
    </vehicle>
    <vehicle id="111" depart="133.20">
        <route edges="25226698#0 25226698#1 25226698#2 279127897 25226709#0 25226709#1 25226709#2 670045142 49674157#0 49674157#1 49674157#2"/>
    </vehicle>
    <vehicle id="113" depart="135.60">
        <route edges="25226698#0 25226698#1 25226698#2 279127897 25226709#0 25226709#1 25226709#2 670045142 49674157#0 49674157#1 49674157#2"/>
    </vehicle>
    <vehicle id="114" depart="136.80">
        <route edges="145398224#0 145398224#1 888744725#1 881058730#0 881058730#1 881058730#2 25226689 279127902 279127897 279127901 279127900 25226433#0 25226433#1 881058731#0 881058731#1"/>
    </vehicle>
    <vehicle id="115" depart="138.00">
        <route edges="-25226668#2 -25226668#1 -25226668#0 -251608797#1 -251608797#0"/>
    </vehicle>
    <vehicle id="117" depart="140.40">
        <route edges="145398224#0 145398224#1 -145398224#1 -145398224#0"/>
    </vehicle>
    <vehicle id="121" depart="145.20">
        <route edges="25226698#0 25226698#1 25226698#2 279127897 279127901 279127900 25226433#0 25226433#1 881058731#0 881058731#1"/>
    </vehicle>
    <vehicle id="122" depart="146.40">
        <route edges="145398224#0 145398224#1 888744725#1 881058730#0 881058730#1 881058730#2 25226689 279127902 279127897 25226709#0 25226709#1 25226709#2 670045142 49674157#0 49674157#1 49674157#2"/>
    </vehicle>
    <vehicle id="124" depart="148.80">
        <route edges="25227098#0 -25227098#0"/>
    </vehicle>
    <vehicle id="126" depart="151.20">
        <route edges="-25226668#2 25226668#2"/>
    </vehicle>
    <vehicle id="127" depart="152.40">
        <route edges="888744725#0 888744725#1 881058730#0 881058730#1 881058730#2 25226689 279127902 279127897 279127901 279127900 25226433#0 25226433#1 881058731#0 881058731#1"/>
    </vehicle>
    <vehicle id="128" depart="153.60">
        <route edges="-25226668#2 -25226668#1 -25226668#0 -251608797#1 -251608797#0"/>
    </vehicle>
    <vehicle id="129" depart="154.80">
        <route edges="145398224#0 145398224#1 888744725#1 881058730#0 881058730#1 881058730#2 25226689 279127902 279127897 279127901 279127900 25226433#0 25226433#1 881058731#0 881058731#1"/>
    </vehicle>
    <vehicle id="130" depart="156.00">
        <route edges="888744725#0 888744725#1 881058730#0 881058730#1 881058730#2 25226689 279127902 279127897 279127901 279127900 25226433#0 25226433#1 881058731#0 881058731#1"/>
    </vehicle>
    <vehicle id="131" depart="157.20">
        <route edges="251608797#0 251608797#1 25226668#0 25226668#1 -25226668#1 -25226668#0 -251608797#1 -251608797#0"/>
    </vehicle>
    <vehicle id="132" depart="158.40">
        <route edges="49674164#0 49674164#1 49674164#2 279127900 279127898 25226689 25226697#0 25226697#1 25226697#2 25226697#3"/>
    </vehicle>
    <vehicle id="138" depart="165.60">
        <route edges="-25226668#2 25226668#2"/>
    </vehicle>
    <vehicle id="139" depart="166.80">
        <route edges="145398224#0 145398224#1 888744725#1 881058730#0 881058730#1 881058730#2 25226689 25226697#0 25226697#1 25226697#2 25226697#3"/>
    </vehicle>
    <vehicle id="141" depart="169.20">
        <route edges="25227098#0 -25226668#1 -25226668#0 -251608797#1 -251608797#0"/>
    </vehicle>
    <vehicle id="142" depart="170.40">
        <route edges="25226698#0 25226698#1 25226698#2 279127897 279127901 279127900 25226433#0 25226433#1 881058731#0 881058731#1"/>
    </vehicle>
    <vehicle id="144" depart="172.80">
        <route edges="251608797#0 251608797#1 25226668#0 25226668#1 -25226668#1 -25226668#0 -251608797#1 -251608797#0"/>
    </vehicle>
    <vehicle id="146" depart="175.20">
        <route edges="25227098#0 -25226668#1 -25226668#0 -251608797#1 -251608797#0"/>
    </vehicle>
    <vehicle id="151" depart="181.20">
        <route edges="49674164#0 49674164#1 49674164#2 279127900 279127898 25226689 25226697#0 25226697#1 25226697#2 25226697#3"/>
    </vehicle>
    <vehicle id="152" depart="182.40">
        <route edges="145398224#0 145398224#1 -145398224#1 -145398224#0"/>
    </vehicle>
    <vehicle id="154" depart="184.80">
        <route edges="49674164#0 49674164#1 49674164#2 279127900 25226433#0 25226433#1 881058731#0 881058731#1"/>
    </vehicle>
    <vehicle id="156" depart="187.20">
        <route edges="145398224#0 145398224#1 -145398224#1 -145398224#0"/>
    </vehicle>
    <vehicle id="157" depart="188.40">
        <route edges="49674164#0 49674164#1 49674164#2 279127900 25226433#0 25226433#1 881058731#0 881058731#1"/>
    </vehicle>
    <vehicle id="159" depart="190.80">
        <route edges="145398224#0 145398224#1 888744725#1 881058730#0 881058730#1 881058730#2 25226689 279127902 279127897 279127901 279127900 25226433#0 25226433#1 881058731#0 881058731#1"/>
    </vehicle>
    <vehicle id="160" depart="192.00">
        <route edges="888744725#0 888744725#1 881058730#0 881058730#1 881058730#2 25226689 279127902 279127897 279127901 279127900 25226433#0 25226433#1 881058731#0 881058731#1"/>
    </vehicle>
    <vehicle id="161" depart="193.20">
        <route edges="49674164#0 49674164#1 49674164#2 279127900 25226433#0 25226433#1 881058731#0 881058731#1"/>
    </vehicle>
    <vehicle id="164" depart="196.80">
        <route edges="49674164#0 49674164#1 49674164#2 279127900 25226433#0 25226433#1 881058731#0 881058731#1"/>
    </vehicle>
    <vehicle id="167" depart="200.40">
        <route edges="888744725#0 888744725#1 881058730#0 881058730#1 881058730#2 25226689 279127902 279127897 279127901 279127900 25226433#0 25226433#1 881058731#0 881058731#1"/>
    </vehicle>
    <vehicle id="168" depart="201.60">
        <route edges="145398224#0 145398224#1 888744725#1 881058730#0 881058730#1 881058730#2 25226689 279127902 279127897 25226709#0 25226709#1 25226709#2 670045142 49674157#0 49674157#1 49674157#2"/>
    </vehicle>
    <vehicle id="171" depart="205.20">
        <route edges="-25226668#2 -25226668#1 -25226668#0 -251608797#1 -251608797#0"/>
    </vehicle>
    <vehicle id="174" depart="208.80">
        <route edges="25227098#0 -25227098#0"/>
    </vehicle>
    <vehicle id="176" depart="211.20">
        <route edges="888744725#0 -145398224#1 -145398224#0"/>
    </vehicle>
    <vehicle id="179" depart="214.80">
        <route edges="-25226668#2 25226668#2"/>
    </vehicle>
    <vehicle id="181" depart="217.20">
        <route edges="25227098#0 25226668#2"/>
    </vehicle>
    <vehicle id="183" depart="219.60">
        <route edges="145398224#0 145398224#1 888744725#1 881058730#0 881058730#1 881058730#2 25226689 25226697#0 25226697#1 25226697#2 25226697#3"/>
    </vehicle>
    <vehicle id="185" depart="222.00">
        <route edges="25226698#0 25226698#1 25226698#2 279127897 25226709#0 25226709#1 25226709#2 670045142 49674157#0 49674157#1 49674157#2"/>
    </vehicle>
    <vehicle id="186" depart="223.20">
        <route edges="49674164#0 49674164#1 49674164#2 279127900 279127898 25226689 25226697#0 25226697#1 25226697#2 25226697#3"/>
    </vehicle>
    <vehicle id="188" depart="225.60">
        <route edges="25227098#0 -25227098#0"/>
    </vehicle>
    <vehicle id="191" depart="229.20">
        <route edges="251608797#0 251608797#1 25226668#0 25226668#1 -25227098#0"/>
    </vehicle>
    <vehicle id="192" depart="230.40">
        <route edges="251608797#0 251608797#1 25226668#0 25226668#1 -25227098#0"/>
    </vehicle>
    <vehicle id="193" depart="231.60">
        <route edges="-25226668#2 -25227098#0"/>
    </vehicle>
    <vehicle id="194" depart="232.80">
        <route edges="888744725#0 888744725#1 881058730#0 881058730#1 881058730#2 25226689 25226697#0 25226697#1 25226697#2 25226697#3"/>
    </vehicle>
    <vehicle id="195" depart="234.00">
        <route edges="888744725#0 888744725#1 881058730#0 881058730#1 881058730#2 25226689 25226697#0 25226697#1 25226697#2 25226697#3"/>
    </vehicle>
    <vehicle id="196" depart="235.20">
        <route edges="251608797#0 251608797#1 25226668#0 25226668#1 25226668#2"/>
    </vehicle>
    <vehicle id="197" depart="236.40">
        <route edges="-25226668#2 -25227098#0"/>
    </vehicle>
    <vehicle id="198" depart="237.60">
        <route edges="25226698#0 25226698#1 25226698#2 279127897 279127901 279127900 279127898 25226689 25226697#0 25226697#1 25226697#2 25226697#3"/>
    </vehicle>
    <vehicle id="199" depart="238.80">
        <route edges="25227098#0 25226668#2"/>
    </vehicle>
    <vehicle id="201" depart="241.20">
        <route edges="25226698#0 25226698#1 25226698#2 279127897 279127901 279127900 25226433#0 25226433#1 881058731#0 881058731#1"/>
    </vehicle>
    <vehicle id="203" depart="243.60">
        <route edges="-25226668#2 25226668#2"/>
    </vehicle>
    <vehicle id="204" depart="244.80">
        <route edges="25227098#0 -25227098#0"/>
    </vehicle>
    <vehicle id="205" depart="246.00">
        <route edges="49674164#0 49674164#1 49674164#2 279127900 279127898 25226689 279127902 279127897 25226709#0 25226709#1 25226709#2 670045142 49674157#0 49674157#1 49674157#2"/>
    </vehicle>
    <vehicle id="206" depart="247.20">
        <route edges="25227098#0 -25226668#1 -25226668#0 -251608797#1 -251608797#0"/>
    </vehicle>
    <vehicle id="207" depart="248.40">
        <route edges="145398224#0 145398224#1 -145398224#1 -145398224#0"/>
    </vehicle>
    <vehicle id="211" depart="253.20">
        <route edges="145398224#0 145398224#1 888744725#1 881058730#0 881058730#1 881058730#2 25226689 25226697#0 25226697#1 25226697#2 25226697#3"/>
    </vehicle>
    <vehicle id="214" depart="256.80">
        <route edges="49674164#0 49674164#1 49674164#2 279127900 279127898 25226689 279127902 279127897 25226709#0 25226709#1 25226709#2 670045142 49674157#0 49674157#1 49674157#2"/>
    </vehicle>
    <vehicle id="215" depart="258.00">
        <route edges="-25226668#2 -25227098#0"/>
    </vehicle>
    <vehicle id="216" depart="259.20">
        <route edges="145398224#0 145398224#1 888744725#1 881058730#0 881058730#1 881058730#2 25226689 279127902 279127897 279127901 279127900 25226433#0 25226433#1 881058731#0 881058731#1"/>
    </vehicle>
    <vehicle id="218" depart="261.60">
        <route edges="145398224#0 145398224#1 888744725#1 881058730#0 881058730#1 881058730#2 25226689 279127902 279127897 25226709#0 25226709#1 25226709#2 670045142 49674157#0 49674157#1 49674157#2"/>
    </vehicle>
    <vehicle id="219" depart="262.80">
        <route edges="25226698#0 25226698#1 25226698#2 279127897 25226709#0 25226709#1 25226709#2 670045142 49674157#0 49674157#1 49674157#2"/>
    </vehicle>
    <vehicle id="222" depart="266.40">
        <route edges="888744725#0 888744725#1 881058730#0 881058730#1 881058730#2 25226689 25226697#0 25226697#1 25226697#2 25226697#3"/>
    </vehicle>
    <vehicle id="225" depart="270.00">
        <route edges="888744725#0 888744725#1 881058730#0 881058730#1 881058730#2 25226689 279127902 279127897 25226709#0 25226709#1 25226709#2 670045142 49674157#0 49674157#1 49674157#2"/>
    </vehicle>
    <vehicle id="227" depart="272.40">
        <route edges="145398224#0 145398224#1 888744725#1 881058730#0 881058730#1 881058730#2 25226689 25226697#0 25226697#1 25226697#2 25226697#3"/>
    </vehicle>
    <vehicle id="229" depart="274.80">
        <route edges="25227098#0 -25226668#1 -25226668#0 -251608797#1 -251608797#0"/>
    </vehicle>
    <vehicle id="230" depart="276.00">
        <route edges="-25226668#2 -25227098#0"/>
    </vehicle>
    <vehicle id="233" depart="279.60">
        <route edges="145398224#0 145398224#1 888744725#1 881058730#0 881058730#1 881058730#2 25226689 25226697#0 25226697#1 25226697#2 25226697#3"/>
    </vehicle>
    <vehicle id="235" depart="282.00">
        <route edges="251608797#0 251608797#1 25226668#0 25226668#1 25226668#2"/>
    </vehicle>
    <vehicle id="236" depart="283.20">
        <route edges="251608797#0 251608797#1 25226668#0 25226668#1 -25226668#1 -25226668#0 -251608797#1 -251608797#0"/>
    </vehicle>
    <vehicle id="239" depart="286.80">
        <route edges="49674164#0 49674164#1 49674164#2 279127900 279127898 25226689 279127902 279127897 25226709#0 25226709#1 25226709#2 670045142 49674157#0 49674157#1 49674157#2"/>
    </vehicle>
    <vehicle id="242" depart="290.40">
        <route edges="49674164#0 49674164#1 49674164#2 279127900 25226433#0 25226433#1 881058731#0 881058731#1"/>
    </vehicle>
    <vehicle id="244" depart="292.80">
        <route edges="25226698#0 25226698#1 25226698#2 279127897 279127901 279127900 279127898 25226689 25226697#0 25226697#1 25226697#2 25226697#3"/>
    </vehicle>
    <vehicle id="248" depart="297.60">
        <route edges="251608797#0 251608797#1 25226668#0 25226668#1 -25226668#1 -25226668#0 -251608797#1 -251608797#0"/>
    </vehicle>
    <vehicle id="251" depart="301.20">
        <route edges="251608797#0 251608797#1 25226668#0 25226668#1 25226668#2"/>
    </vehicle>
    <vehicle id="253" depart="303.60">
        <route edges="-25226668#2 25226668#2"/>
    </vehicle>
    <vehicle id="254" depart="304.80">
        <route edges="-25226668#2 -25227098#0"/>
    </vehicle>
    <vehicle id="257" depart="308.40">
        <route edges="49674164#0 49674164#1 49674164#2 279127900 279127898 25226689 279127902 279127897 25226709#0 25226709#1 25226709#2 670045142 49674157#0 49674157#1 49674157#2"/>
    </vehicle>
    <vehicle id="258" depart="309.60">
        <route edges="145398224#0 145398224#1 -145398224#1 -145398224#0"/>
    </vehicle>
    <vehicle id="259" depart="310.80">
        <route edges="-25226668#2 25226668#2"/>
    </vehicle>
    <vehicle id="264" depart="316.80">
        <route edges="-25226668#2 -25226668#1 -25226668#0 -251608797#1 -251608797#0"/>
    </vehicle>
    <vehicle id="268" depart="321.60">
        <route edges="145398224#0 145398224#1 888744725#1 881058730#0 881058730#1 881058730#2 25226689 25226697#0 25226697#1 25226697#2 25226697#3"/>
    </vehicle>
    <vehicle id="270" depart="324.00">
        <route edges="49674164#0 49674164#1 49674164#2 279127900 25226433#0 25226433#1 881058731#0 881058731#1"/>
    </vehicle>
    <vehicle id="277" depart="332.40">
        <route edges="49674164#0 49674164#1 49674164#2 279127900 279127898 25226689 25226697#0 25226697#1 25226697#2 25226697#3"/>
    </vehicle>
    <vehicle id="280" depart="336.00">
        <route edges="251608797#0 251608797#1 25226668#0 25226668#1 -25227098#0"/>
    </vehicle>
    <vehicle id="282" depart="338.40">
        <route edges="49674164#0 49674164#1 49674164#2 279127900 279127898 25226689 279127902 279127897 25226709#0 25226709#1 25226709#2 670045142 49674157#0 49674157#1 49674157#2"/>
    </vehicle>
    <vehicle id="285" depart="342.00">
        <route edges="25227098#0 25226668#2"/>
    </vehicle>
    <vehicle id="286" depart="343.20">
        <route edges="49674164#0 49674164#1 49674164#2 279127900 25226433#0 25226433#1 881058731#0 881058731#1"/>
    </vehicle>
    <vehicle id="287" depart="344.40">
        <route edges="145398224#0 145398224#1 888744725#1 881058730#0 881058730#1 881058730#2 25226689 279127902 279127897 25226709#0 25226709#1 25226709#2 670045142 49674157#0 49674157#1 49674157#2"/>
    </vehicle>
    <vehicle id="289" depart="346.80">
        <route edges="25226698#0 25226698#1 25226698#2 279127897 25226709#0 25226709#1 25226709#2 670045142 49674157#0 49674157#1 49674157#2"/>
    </vehicle>
    <vehicle id="290" depart="348.00">
        <route edges="145398224#0 145398224#1 888744725#1 881058730#0 881058730#1 881058730#2 25226689 279127902 279127897 25226709#0 25226709#1 25226709#2 670045142 49674157#0 49674157#1 49674157#2"/>
    </vehicle>
    <vehicle id="293" depart="351.60">
        <route edges="25226698#0 25226698#1 25226698#2 279127897 279127901 279127900 279127898 25226689 25226697#0 25226697#1 25226697#2 25226697#3"/>
    </vehicle>
    <vehicle id="296" depart="355.20">
        <route edges="145398224#0 145398224#1 888744725#1 881058730#0 881058730#1 881058730#2 25226689 279127902 279127897 25226709#0 25226709#1 25226709#2 670045142 49674157#0 49674157#1 49674157#2"/>
    </vehicle>
    <vehicle id="298" depart="357.60">
        <route edges="25227098#0 -25226668#1 -25226668#0 -251608797#1 -251608797#0"/>
    </vehicle>
    <vehicle id="301" depart="361.20">
        <route edges="25226698#0 25226698#1 25226698#2 279127897 25226709#0 25226709#1 25226709#2 670045142 49674157#0 49674157#1 49674157#2"/>
    </vehicle>
    <vehicle id="303" depart="363.60">
        <route edges="25226698#0 25226698#1 25226698#2 279127897 25226709#0 25226709#1 25226709#2 670045142 49674157#0 49674157#1 49674157#2"/>
    </vehicle>
    <vehicle id="304" depart="364.80">
        <route edges="-25226668#2 -25226668#1 -25226668#0 -251608797#1 -251608797#0"/>
    </vehicle>
    <vehicle id="305" depart="366.00">
        <route edges="25227098#0 -25227098#0"/>
    </vehicle>
    <vehicle id="306" depart="367.20">
        <route edges="25227098#0 25226668#2"/>
    </vehicle>
    <vehicle id="309" depart="370.80">
        <route edges="25227098#0 -25226668#1 -25226668#0 -251608797#1 -251608797#0"/>
    </vehicle>
    <vehicle id="310" depart="372.00">
        <route edges="145398224#0 145398224#1 -145398224#1 -145398224#0"/>
    </vehicle>
    <vehicle id="311" depart="373.20">
        <route edges="145398224#0 145398224#1 -145398224#1 -145398224#0"/>
    </vehicle>
    <vehicle id="312" depart="374.40">
        <route edges="25226698#0 25226698#1 25226698#2 279127897 25226709#0 25226709#1 25226709#2 670045142 49674157#0 49674157#1 49674157#2"/>
    </vehicle>
    <vehicle id="314" depart="376.80">
        <route edges="25226698#0 25226698#1 25226698#2 279127897 25226709#0 25226709#1 25226709#2 670045142 49674157#0 49674157#1 49674157#2"/>
    </vehicle>
    <vehicle id="316" depart="379.20">
        <route edges="145398224#0 145398224#1 -145398224#1 -145398224#0"/>
    </vehicle>
    <vehicle id="318" depart="381.60">
        <route edges="145398224#0 145398224#1 -145398224#1 -145398224#0"/>
    </vehicle>
    <vehicle id="323" depart="387.60">