<?xml version="1.0" encoding="UTF-8"?>

<!-- generated on 2024-09-03 01:38:06 by Eclipse SUMO netconvert Version 1.20.0
<configuration xmlns:xsi="http://www.w3.org/2001/XMLSchema-instance" xsi:noNamespaceSchemaLocation="http://sumo.dlr.de/xsd/netconvertConfiguration.xsd">

    <input>
        <osm-files value="train_files/intersection/middle/osm_files/map(37).osm"/>
    </input>

    <output>
        <output-file value="train_files/intersection/middle/outputs/map(37)_dict/map(37)/map(37).net.xml"/>
    </output>

    <projection>
        <proj.utm value="true"/>
    </projection>

    <building_defaults>
        <default.junctions.keep-clear value="false"/>
    </building_defaults>

</configuration>
-->

<net version="1.20" junctionCornerDetail="5" limitTurnSpeed="5.50" xmlns:xsi="http://www.w3.org/2001/XMLSchema-instance" xsi:noNamespaceSchemaLocation="http://sumo.dlr.de/xsd/net_file.xsd">

    <location netOffset="-491570.15,-5383830.08" convBoundary="0.00,0.00,409.43,568.53" origBoundary="2.885633,48.607494,2.891190,48.612609" projParameter="+proj=utm +zone=31 +ellps=WGS84 +datum=WGS84 +units=m +no_defs"/>

    <type id="highway.primary" priority="12" numLanes="2" speed="27.78" disallow="tram rail_urban rail rail_electric rail_fast ship container cable_car subway aircraft wheelchair scooter drone" oneway="0"/>
    <type id="highway.service" priority="1" numLanes="1" speed="5.56" allow="pedestrian delivery bicycle" oneway="0"/>
    <type id="highway.tertiary" priority="10" numLanes="1" speed="22.22" disallow="tram rail_urban rail rail_electric rail_fast ship container cable_car subway aircraft wheelchair scooter drone" oneway="0"/>

    <edge id=":1235711953_0" function="internal">
        <lane id=":1235711953_0_0" index="0" disallow="tram rail_urban rail rail_electric rail_fast ship container cable_car subway aircraft wheelchair scooter drone" speed="3.65" length="4.67" shape="0.60,491.57 -0.81,491.28 -1.48,490.69 -1.41,489.80 -0.60,488.60"/>
    </edge>
    <edge id=":4014255817_0" function="internal">
        <lane id=":4014255817_0_0" index="0" disallow="tram rail_urban rail rail_electric rail_fast ship container cable_car subway aircraft wheelchair scooter drone" speed="13.89" length="0.31" shape="356.39,328.56 356.33,328.86"/>
    </edge>
    <edge id=":4014255817_1" function="internal">
        <lane id=":4014255817_1_0" index="0" disallow="tram rail_urban rail rail_electric rail_fast ship container cable_car subway aircraft wheelchair scooter drone" speed="13.89" length="0.22" shape="353.20,328.17 353.25,327.95"/>
    </edge>
    <edge id=":4014255818_0" function="internal">
        <lane id=":4014255818_0_0" index="0" disallow="tram rail_urban rail rail_electric rail_fast ship container cable_car subway aircraft wheelchair scooter drone" speed="13.89" length="0.48" shape="355.58,332.28 355.55,332.41 355.53,332.51 355.50,332.60 355.45,332.74"/>
    </edge>
    <edge id=":4014255818_1" function="internal">
        <lane id=":4014255818_1_0" index="0" disallow="tram rail_urban rail rail_electric rail_fast ship container cable_car subway aircraft wheelchair scooter drone" speed="13.89" length="0.16" shape="352.41,331.74 352.43,331.70 352.44,331.67 352.44,331.64 352.45,331.59"/>
    </edge>
    <edge id=":4014255820_0" function="internal">
        <lane id=":4014255820_0_0" index="0" disallow="tram rail_urban rail rail_electric rail_fast ship container cable_car subway aircraft wheelchair scooter drone" speed="13.89" length="0.42" shape="343.89,349.93 343.80,350.02 343.74,350.08 343.68,350.14 343.58,350.21"/>
    </edge>
    <edge id=":4014255820_1" function="internal">
        <lane id=":4014255820_1_0" index="0" disallow="tram rail_urban rail rail_electric rail_fast ship container cable_car subway aircraft wheelchair scooter drone" speed="13.89" length="2.45" shape="339.69,349.02 340.30,348.62 340.73,348.37 341.14,348.08 341.68,347.61"/>
    </edge>
    <edge id=":4014255821_0" function="internal">
        <lane id=":4014255821_0_0" index="0" disallow="tram rail_urban rail rail_electric rail_fast ship container cable_car subway aircraft wheelchair scooter drone" speed="6.70" length="8.90" shape="341.77,358.53 340.48,356.74 338.77,355.76 336.66,355.58 334.13,356.20"/>
    </edge>
    <edge id=":4014255821_1" function="internal">
        <lane id=":4014255821_1_0" index="0" disallow="tram rail_urban rail rail_electric rail_fast ship container cable_car subway aircraft wheelchair scooter drone" speed="7.21" length="10.05" shape="341.77,358.53 340.11,354.89 339.19,352.11 338.99,350.19 339.53,349.13"/>
    </edge>
    <edge id=":4014255821_2" function="internal">
        <lane id=":4014255821_2_0" index="0" disallow="tram rail_urban rail rail_electric rail_fast ship container cable_car subway aircraft wheelchair scooter drone" speed="13.89" length="10.94" shape="343.33,350.38 340.82,352.25 338.95,353.71 336.97,354.95 334.13,356.20"/>
    </edge>
    <edge id=":4014255821_3" function="internal">
        <lane id=":4014255821_3_0" index="0" disallow="tram rail_urban rail rail_electric rail_fast ship container cable_car subway aircraft wheelchair scooter drone" speed="3.94" length="5.65" shape="343.33,350.38 341.91,351.50 340.80,351.66 340.01,350.87 339.58,349.32"/>
    </edge>
    <edge id=":4014255821_6" function="internal">
        <lane id=":4014255821_6_0" index="0" disallow="tram rail_urban rail rail_electric rail_fast ship container cable_car subway aircraft wheelchair scooter drone" speed="3.94" length="0.19" shape="339.58,349.32 339.53,349.13"/>
    </edge>
    <edge id=":4014255821_4" function="internal">
        <lane id=":4014255821_4_0" index="0" disallow="tram rail_urban rail rail_electric rail_fast ship container cable_car subway aircraft wheelchair scooter drone" speed="13.89" length="8.53" shape="332.26,353.49 334.58,352.52 336.08,351.66 337.48,350.63 339.53,349.13"/>
    </edge>
    <edge id=":4014255821_5" function="internal">
        <lane id=":4014255821_5_0" index="0" disallow="tram rail_urban rail rail_electric rail_fast ship container cable_car subway aircraft wheelchair scooter drone" speed="3.69" length="1.63" shape="332.26,353.49 333.74,353.47 333.87,353.53"/>
    </edge>
    <edge id=":4014255821_7" function="internal">
        <lane id=":4014255821_7_0" index="0" disallow="tram rail_urban rail rail_electric rail_fast ship container cable_car subway aircraft wheelchair scooter drone" speed="3.69" length="3.19" shape="333.87,353.53 334.55,353.91 334.68,354.82 334.13,356.20"/>
    </edge>
    <edge id=":4014255822_0" function="internal">
        <lane id=":4014255822_0_0" index="0" disallow="tram rail_urban rail rail_electric rail_fast ship container cable_car subway aircraft wheelchair scooter drone" speed="13.89" length="0.30" shape="319.72,361.72 319.44,361.83"/>
    </edge>
    <edge id=":4014255822_1" function="internal">
        <lane id=":4014255822_1_0" index="0" disallow="tram rail_urban rail rail_electric rail_fast ship container cable_car subway aircraft wheelchair scooter drone" speed="13.89" length="0.30" shape="318.23,358.87 318.51,358.76"/>
    </edge>
    <edge id=":4014255824_0" function="internal">
        <lane id=":4014255824_0_0" index="0" disallow="tram rail_urban rail rail_electric rail_fast ship container cable_car subway aircraft wheelchair scooter drone" speed="13.89" length="6.51" shape="348.00,361.88 348.09,363.77 348.55,365.06 348.99,366.34 349.06,368.23"/>
    </edge>
    <edge id=":4014255824_1" function="internal">
        <lane id=":4014255824_1_0" index="0" disallow="tram rail_urban rail rail_electric rail_fast ship container cable_car subway aircraft wheelchair scooter drone" speed="4.73" length="2.18" shape="348.00,361.88 347.60,364.03"/>
    </edge>
    <edge id=":4014255824_4" function="internal">
        <lane id=":4014255824_4_0" index="0" disallow="tram rail_urban rail rail_electric rail_fast ship container cable_car subway aircraft wheelchair scooter drone" speed="4.73" length="5.03" shape="347.60,364.03 347.56,364.21 346.77,365.16 345.62,364.71 344.11,362.88"/>
    </edge>
    <edge id=":4014255824_2" function="internal">
        <lane id=":4014255824_2_0" index="0" disallow="tram rail_urban rail rail_electric rail_fast ship container cable_car subway aircraft wheelchair scooter drone" speed="8.69" length="5.52" shape="345.88,367.90 345.92,366.31 345.65,365.23 345.05,364.23 344.11,362.88"/>
    </edge>
    <edge id=":4014255824_3" function="internal">
        <lane id=":4014255824_3_0" index="0" disallow="tram rail_urban rail rail_electric rail_fast ship container cable_car subway aircraft wheelchair scooter drone" speed="3.65" length="1.31" shape="345.88,367.90 346.71,366.90"/>
    </edge>
    <edge id=":4014255824_5" function="internal">
        <lane id=":4014255824_5_0" index="0" disallow="tram rail_urban rail rail_electric rail_fast ship container cable_car subway aircraft wheelchair scooter drone" speed="3.65" length="3.37" shape="346.71,366.90 346.79,366.79 347.63,366.48 348.39,366.95 349.06,368.23"/>
    </edge>
    <edge id=":4014255825_0" function="internal">
        <lane id=":4014255825_0_0" index="0" disallow="tram rail_urban rail rail_electric rail_fast ship container cable_car subway aircraft wheelchair scooter drone" speed="13.89" length="0.28" shape="347.06,383.37 347.02,383.64"/>
    </edge>
    <edge id=":4014255825_1" function="internal">
        <lane id=":4014255825_1_0" index="0" disallow="tram rail_urban rail rail_electric rail_fast ship container cable_car subway aircraft wheelchair scooter drone" speed="13.89" length="0.31" shape="343.85,383.20 343.89,382.90"/>
    </edge>
    <edge id=":401452311_0" function="internal">
        <lane id=":401452311_0_0" index="0" disallow="tram rail_urban rail rail_electric rail_fast ship container cable_car subway aircraft wheelchair scooter drone" speed="11.09" length="6.23" shape="349.48,344.79 348.65,346.40 348.38,347.63 348.41,348.94 348.49,350.79"/>
    </edge>
    <edge id=":401452311_1" function="internal">
        <lane id=":401452311_1_0" index="0" disallow="tram rail_urban rail rail_electric rail_fast ship container cable_car subway aircraft wheelchair scooter drone" speed="13.89" length="6.55" shape="349.48,344.79 348.35,346.33 347.33,347.18 346.19,347.93 344.69,349.17"/>
    </edge>
    <edge id=":401452311_2" function="internal">
        <lane id=":401452311_2_0" index="0" disallow="tram rail_urban rail rail_electric rail_fast ship container cable_car subway aircraft wheelchair scooter drone" speed="3.65" length="1.44" shape="349.48,344.79 348.17,345.40"/>
    </edge>
    <edge id=":401452311_6" function="internal">
        <lane id=":401452311_6_0" index="0" disallow="tram rail_urban rail rail_electric rail_fast ship container cable_car subway aircraft wheelchair scooter drone" speed="3.65" length="3.23" shape="348.17,345.40 347.28,345.33 346.80,344.57 346.74,343.13"/>
    </edge>
    <edge id=":401452311_3" function="internal">
        <lane id=":401452311_3_0" index="0" disallow="tram rail_urban rail rail_electric rail_fast ship container cable_car subway aircraft wheelchair scooter drone" speed="13.89" length="5.71" shape="342.49,346.85 343.81,345.79 344.83,345.17 345.75,344.46 346.74,343.13"/>
    </edge>
    <edge id=":401452311_4" function="internal">
        <lane id=":401452311_4_0" index="0" disallow="tram rail_urban rail rail_electric rail_fast ship container cable_car subway aircraft wheelchair scooter drone" speed="5.85" length="3.90" shape="342.49,346.85 345.09,344.98 345.79,344.99"/>
    </edge>
    <edge id=":401452311_5" function="internal">
        <lane id=":401452311_5_0" index="0" disallow="tram rail_urban rail rail_electric rail_fast ship container cable_car subway aircraft wheelchair scooter drone" speed="3.65" length="1.44" shape="342.49,346.85 343.91,346.60"/>
    </edge>
    <edge id=":401452311_7" function="internal">
        <lane id=":401452311_7_0" index="0" disallow="tram rail_urban rail rail_electric rail_fast ship container cable_car subway aircraft wheelchair scooter drone" speed="5.85" length="7.28" shape="345.79,344.99 346.96,345.01 348.09,346.95 348.49,350.79"/>
    </edge>
    <edge id=":401452311_8" function="internal">
        <lane id=":401452311_8_0" index="0" disallow="tram rail_urban rail rail_electric rail_fast ship container cable_car subway aircraft wheelchair scooter drone" speed="3.65" length="3.23" shape="343.91,346.60 344.75,346.91 345.01,347.76 344.69,349.17"/>
    </edge>
    <edge id=":48046410_0" function="internal">
        <lane id=":48046410_0_0" index="0" disallow="tram rail_urban rail rail_electric rail_fast ship container cable_car subway aircraft wheelchair scooter drone" speed="3.65" length="4.67" shape="355.31,0.09 356.04,-1.16 356.82,-1.60 357.64,-1.24 358.50,-0.09"/>
    </edge>
    <edge id=":8478564262_0" function="internal">
        <lane id=":8478564262_0_0" index="0" allow="pedestrian delivery bicycle" speed="3.65" length="4.67" shape="409.92,373.62 410.82,374.75 410.96,375.63 410.33,376.27 408.95,376.67"/>
    </edge>
    <edge id=":8478564263_0" function="internal">
        <lane id=":8478564263_0_0" index="0" allow="pedestrian delivery bicycle" speed="4.84" length="5.29" shape="351.71,358.51 350.23,358.27 349.13,358.59 348.41,359.48 348.08,360.94"/>
    </edge>
    <edge id=":8478564263_1" function="internal">
        <lane id=":8478564263_1_0" index="0" allow="pedestrian delivery bicycle" speed="3.65" length="4.67" shape="351.71,358.51 350.81,357.39 350.67,356.50 351.29,355.86 352.68,355.46"/>
    </edge>
    <edge id=":8478564263_2" function="internal">
        <lane id=":8478564263_2_0" index="0" allow="pedestrian delivery bicycle" speed="6.21" length="6.18" shape="348.49,351.47 348.76,352.72 349.54,353.80 350.85,354.71 352.68,355.46"/>
    </edge>
    <edge id=":8478564263_3" function="internal">
        <lane id=":8478564263_3_0" index="0" disallow="tram rail_urban rail rail_electric rail_fast ship container cable_car subway aircraft wheelchair scooter drone" speed="13.89" length="9.49" shape="348.49,351.47 348.49,354.29 348.44,356.21 348.31,358.14 348.08,360.94"/>
    </edge>
    <edge id=":9918645662_0" function="internal">
        <lane id=":9918645662_0_0" index="0" disallow="tram rail_urban rail rail_electric rail_fast ship container cable_car subway aircraft wheelchair scooter drone" speed="3.65" length="4.67" shape="318.63,568.80 317.63,569.85 316.78,570.11 316.06,569.58 315.47,568.26"/>
    </edge>

    <edge id="-107527501#0" from="4014255825" to="9918645662" priority="10" type="highway.tertiary" shape="345.45,383.28 344.45,390.54 331.56,478.36 320.20,550.13 317.05,568.53">
        <lane id="-107527501#0_0" index="0" disallow="tram rail_urban rail rail_electric rail_fast ship container cable_car subway aircraft wheelchair scooter drone" speed="13.89" length="187.33" shape="347.02,383.64 346.03,390.76 333.15,478.60 321.78,550.39 318.63,568.80"/>
        <param key="ref" value="D 227"/>
    </edge>
    <edge id="-107527501#1" from="4014255824" to="4014255825" priority="10" type="highway.tertiary" shape="347.48,367.93 346.95,373.15 345.45,383.28">
        <lane id="-107527501#1_0" index="0" disallow="tram rail_urban rail rail_electric rail_fast ship container cable_car subway aircraft wheelchair scooter drone" speed="13.89" length="15.27" shape="349.06,368.23 348.54,373.35 347.06,383.37"/>
        <param key="ref" value="D 227"/>
    </edge>
    <edge id="-398673169#0" from="4014255822" to="1235711953" priority="12" type="highway.primary" shape="318.97,360.29 232.29,395.51 215.44,402.41 175.27,418.80 112.77,444.09 102.03,448.45 0.00,490.08">
        <lane id="-398673169#0_0" index="0" disallow="tram rail_urban rail rail_electric rail_fast ship container cable_car subway aircraft wheelchair scooter drone" speed="13.89" length="344.22" shape="319.44,361.83 232.89,397.00 216.05,403.89 175.87,420.28 113.37,445.57 102.64,449.93 0.60,491.57"/>
        <param key="ref" value="D 619"/>
    </edge>
    <edge id="-398673169#1" from="4014255821" to="4014255822" priority="12" type="highway.primary" shape="338.44,351.84 335.23,354.08 322.12,359.01 318.97,360.29">
        <lane id="-398673169#1_0" index="0" disallow="tram rail_urban rail rail_electric rail_fast ship container cable_car subway aircraft wheelchair scooter drone" speed="13.89" length="15.44" shape="334.13,356.20 322.69,360.51 319.72,361.72"/>
        <param key="ref" value="D 619"/>
    </edge>
    <edge id="-398673171" from="401452311" to="4014255818" priority="12" type="highway.primary" shape="348.45,343.40 352.43,336.85 353.98,332.09">
        <lane id="-398673171_0" index="0" disallow="tram rail_urban rail rail_electric rail_fast ship container cable_car subway aircraft wheelchair scooter drone" speed="13.89" length="12.80" shape="346.74,343.13 350.96,336.18 352.41,331.74"/>
        <param key="ref" value="D 619"/>
    </edge>
    <edge id="-48803566#0" from="4014255817" to="4014255818" priority="12" type="highway.primary">
        <lane id="-48803566#0_0" index="0" disallow="tram rail_urban rail rail_electric rail_fast ship container cable_car subway aircraft wheelchair scooter drone" speed="13.89" length="3.50" shape="356.33,328.86 355.58,332.28"/>
        <param key="ref" value="D 619"/>
    </edge>
    <edge id="-48803566#1" from="48046410" to="4014255817" priority="12" type="highway.primary" shape="356.91,0.00 362.00,95.25 363.92,123.20 364.39,138.16 366.66,178.72 367.99,201.17 366.20,227.98 365.56,234.28 364.86,240.92 359.32,293.62 355.71,323.62 354.80,328.39">
        <lane id="-48803566#1_0" index="0" disallow="tram rail_urban rail rail_electric rail_fast ship container cable_car subway aircraft wheelchair scooter drone" speed="13.89" length="329.68" shape="358.50,-0.09 363.60,95.16 365.52,123.12 365.99,138.09 368.26,178.63 369.60,201.17 367.80,228.12 367.15,234.44 366.45,241.09 360.91,293.80 357.29,323.86 356.39,328.56"/>
        <param key="ref" value="D 619"/>
    </edge>
    <edge id="-912704077" from="8478564263" to="8478564262" priority="1" type="highway.service">
        <lane id="-912704077_0" index="0" allow="pedestrian delivery bicycle" speed="5.56" length="60.05" shape="352.68,355.46 409.92,373.62"/>
    </edge>
    <edge id="-958659359" from="4014255820" to="401452311" priority="12" type="highway.primary">
        <lane id="-958659359_0" index="0" disallow="tram rail_urban rail rail_electric rail_fast ship container cable_car subway aircraft wheelchair scooter drone" speed="13.89" length="1.11" shape="341.68,347.61 342.49,346.85"/>
        <param key="ref" value="D 619"/>
    </edge>
    <edge id="-958659361" from="4014255820" to="4014255821" priority="12" type="highway.primary">
        <lane id="-958659361_0" index="0" disallow="tram rail_urban rail rail_electric rail_fast ship container cable_car subway aircraft wheelchair scooter drone" speed="13.89" length="0.30" shape="343.58,350.21 343.33,350.38"/>
        <param key="ref" value="D 619"/>
    </edge>
    <edge id="107527501#0" from="9918645662" to="4014255825" priority="10" type="highway.tertiary" shape="317.05,568.53 320.20,550.13 331.56,478.36 344.45,390.54 345.45,383.28">
        <lane id="107527501#0_0" index="0" disallow="tram rail_urban rail rail_electric rail_fast ship container cable_car subway aircraft wheelchair scooter drone" speed="13.89" length="187.22" shape="315.47,568.26 318.62,549.87 329.98,478.12 342.86,390.31 343.85,383.20"/>
        <param key="ref" value="D 227"/>
    </edge>
    <edge id="107527501#1" from="4014255825" to="4014255824" priority="10" type="highway.tertiary" shape="345.45,383.28 346.95,373.15 347.48,367.93">
        <lane id="107527501#1_0" index="0" disallow="tram rail_urban rail rail_electric rail_fast ship container cable_car subway aircraft wheelchair scooter drone" speed="13.89" length="15.13" shape="343.89,382.90 345.36,372.95 345.88,367.90"/>
        <param key="ref" value="D 227"/>
    </edge>
    <edge id="398673156#0" from="401452311" to="8478564263" priority="10" type="highway.tertiary" spreadType="center">
        <lane id="398673156#0_0" index="0" disallow="tram rail_urban rail rail_electric rail_fast ship container cable_car subway aircraft wheelchair scooter drone" speed="13.89" length="0.68" shape="348.49,350.79 348.49,351.47"/>
        <param key="ref" value="D 227"/>
    </edge>
    <edge id="398673156#1" from="8478564263" to="4014255824" priority="10" type="highway.tertiary" spreadType="center">
        <lane id="398673156#1_0" index="0" disallow="tram rail_urban rail rail_electric rail_fast ship container cable_car subway aircraft wheelchair scooter drone" speed="13.89" length="0.94" shape="348.08,360.94 348.00,361.88"/>
        <param key="ref" value="D 227"/>
    </edge>
    <edge id="398673157" from="4014255824" to="4014255821" priority="10" type="highway.tertiary" spreadType="center" shape="347.48,367.93 343.40,361.82 338.44,351.84">
        <lane id="398673157_0" index="0" disallow="tram rail_urban rail rail_electric rail_fast ship container cable_car subway aircraft wheelchair scooter drone" speed="13.89" length="4.94" shape="344.11,362.88 343.40,361.82 341.77,358.53"/>
        <param key="ref" value="D 227"/>
    </edge>
    <edge id="398673169#0" from="1235711953" to="4014255822" priority="12" type="highway.primary" shape="0.00,490.08 102.03,448.45 112.77,444.09 175.27,418.80 215.44,402.41 232.29,395.51 318.97,360.29">
        <lane id="398673169#0_0" index="0" disallow="tram rail_urban rail rail_electric rail_fast ship container cable_car subway aircraft wheelchair scooter drone" speed="13.89" length="344.22" shape="-0.60,488.60 101.43,446.97 112.16,442.60 174.67,417.31 214.84,400.93 231.69,394.03 318.23,358.87"/>
        <param key="ref" value="D 619"/>
    </edge>
    <edge id="398673169#1" from="4014255822" to="4014255821" priority="12" type="highway.primary" shape="318.97,360.29 322.12,359.01 335.23,354.08 338.44,351.84">
        <lane id="398673169#1_0" index="0" disallow="tram rail_urban rail rail_electric rail_fast ship container cable_car subway aircraft wheelchair scooter drone" speed="13.89" length="14.72" shape="318.51,358.76 321.54,357.52 332.26,353.49"/>
        <param key="ref" value="D 619"/>
    </edge>
    <edge id="398673171" from="4014255818" to="401452311" priority="12" type="highway.primary" shape="353.98,332.09 352.43,336.85 348.45,343.40">
        <lane id="398673171_0" index="0" disallow="tram rail_urban rail rail_electric rail_fast ship container cable_car subway aircraft wheelchair scooter drone" speed="13.89" length="13.54" shape="355.45,332.74 353.89,337.52 349.48,344.79"/>
        <param key="ref" value="D 619"/>
    </edge>
    <edge id="48803566#0" from="4014255818" to="4014255817" priority="12" type="highway.primary">
        <lane id="48803566#0_0" index="0" disallow="tram rail_urban rail rail_electric rail_fast ship container cable_car subway aircraft wheelchair scooter drone" speed="13.89" length="3.50" shape="352.45,331.59 353.20,328.17"/>
        <param key="ref" value="D 619"/>
    </edge>
    <edge id="48803566#1" from="4014255817" to="48046410" priority="12" type="highway.primary" shape="354.80,328.39 355.71,323.62 359.32,293.62 364.86,240.92 365.56,234.28 366.20,227.98 367.99,201.17 366.66,178.72 364.39,138.16 363.92,123.20 362.00,95.25 356.91,0.00">
        <lane id="48803566#1_0" index="0" disallow="tram rail_urban rail rail_electric rail_fast ship container cable_car subway aircraft wheelchair scooter drone" speed="13.89" length="328.90" shape="353.25,327.95 354.13,323.37 357.73,293.44 363.27,240.76 363.96,234.11 364.61,227.85 366.39,201.16 365.07,178.81 362.79,138.23 362.32,123.28 360.41,95.35 355.31,0.09"/>
        <param key="ref" value="D 619"/>
    </edge>
    <edge id="912704077" from="8478564262" to="8478564263" priority="1" type="highway.service">
        <lane id="912704077_0" index="0" allow="pedestrian delivery bicycle" speed="5.56" length="60.05" shape="408.95,376.67 351.71,358.51"/>
    </edge>
    <edge id="958659359" from="401452311" to="4014255820" priority="12" type="highway.primary">
        <lane id="958659359_0" index="0" disallow="tram rail_urban rail rail_electric rail_fast ship container cable_car subway aircraft wheelchair scooter drone" speed="13.89" length="1.11" shape="344.69,349.17 343.89,349.93"/>
        <param key="ref" value="D 619"/>
    </edge>
    <edge id="958659361" from="4014255821" to="4014255820" priority="12" type="highway.primary">
        <lane id="958659361_0" index="0" disallow="tram rail_urban rail rail_electric rail_fast ship container cable_car subway aircraft wheelchair scooter drone" speed="13.89" length="0.20" shape="339.53,349.13 339.69,349.02"/>
        <param key="ref" value="D 619"/>
    </edge>

    <tlLogic id="4014255817" type="static" programID="0" offset="0">
        <phase duration="82" state="GG"/>
        <phase duration="3"  state="yy"/>
        <phase duration="5"  state="rr"/>
    </tlLogic>
    <tlLogic id="4014255822" type="static" programID="0" offset="0">
        <phase duration="82" state="GG"/>
        <phase duration="3"  state="yy"/>
        <phase duration="5"  state="rr"/>
    </tlLogic>
    <tlLogic id="4014255825" type="static" programID="0" offset="0">
        <phase duration="82" state="GG"/>
        <phase duration="3"  state="yy"/>
        <phase duration="5"  state="rr"/>
    </tlLogic>

    <junction id="1235711953" type="priority" x="0.00" y="490.08" incLanes="-398673169#0_0" intLanes=":1235711953_0_0" shape="0.00,490.08 1.21,493.05 -0.00,490.08">
        <request index="0" response="0" foes="0" cont="0"/>
    </junction>
    <junction id="4014255817" type="traffic_light" x="354.80" y="328.39" incLanes="-48803566#1_0 48803566#0_0" intLanes=":4014255817_0_0 :4014255817_1_0" shape="357.96,328.86 351.68,327.65 351.64,327.83 357.89,329.20">
        <request index="0" response="00" foes="00" cont="0"/>
        <request index="1" response="00" foes="00" cont="0"/>
    </junction>
    <junction id="4014255818" type="priority" x="353.98" y="332.09" incLanes="-48803566#0_0 -398673171_0" intLanes=":4014255818_0_0 :4014255818_1_0" shape="357.14,332.62 350.89,331.25 356.98,333.23 357.05,333.01 357.07,332.93 357.09,332.85">
        <request index="0" response="00" foes="00" cont="0"/>
        <request index="1" response="00" foes="00" cont="0"/>
    </junction>
    <junction id="4014255820" type="priority" x="342.61" y="348.93" incLanes="958659359_0 958659361_0" intLanes=":4014255820_0_0 :4014255820_1_0" shape="344.99,351.09 340.58,346.45 344.25,351.70 344.54,351.49 344.63,351.41 344.73,351.33 344.84,351.23">
        <request index="0" response="00" foes="00" cont="0"/>
        <request index="1" response="00" foes="00" cont="0"/>
    </junction>
    <junction id="4014255821" type="priority" x="338.44" y="351.84" incLanes="398673157_0 -958659361_0 398673169#1_0" intLanes=":4014255821_0_0 :4014255821_1_0 :4014255821_2_0 :4014255821_6_0 :4014255821_4_0 :4014255821_7_0" shape="340.34,359.24 343.20,357.82 344.49,351.52 340.83,346.27 331.32,352.13 335.07,357.56 337.31,357.12 338.25,357.28 339.07,357.68 339.77,358.34">
        <request index="0" response="000100" foes="100100" cont="0"/>
        <request index="1" response="010100" foes="011100" cont="0"/>
        <request index="2" response="000000" foes="100011" cont="0"/>
        <request index="3" response="010010" foes="010010" cont="1"/>
        <request index="4" response="000000" foes="001010" cont="0"/>
        <request index="5" response="000101" foes="000101" cont="1"/>
    </junction>
    <junction id="4014255822" type="traffic_light" x="318.97" y="360.29" incLanes="-398673169#1_0 398673169#0_0" intLanes=":4014255822_0_0 :4014255822_1_0" shape="320.32,363.20 317.90,357.28 317.63,357.39 320.04,363.32">
        <request index="0" response="00" foes="00" cont="0"/>
        <request index="1" response="00" foes="00" cont="0"/>
    </junction>
    <junction id="4014255824" type="priority" x="347.48" y="367.93" incLanes="398673156#1_0 107527501#1_0" intLanes=":4014255824_0_0 :4014255824_4_0 :4014255824_2_0 :4014255824_5_0" shape="349.59,362.01 346.40,361.74 346.24,362.44 346.10,362.55 345.92,362.52 345.70,362.33 345.44,361.99 342.78,363.77 343.74,365.11 344.06,365.62 344.25,366.16 344.33,366.84 344.28,367.74 350.65,368.39 350.46,366.02 350.14,365.20 349.82,364.38 349.60,363.38">
        <request index="0" response="0000" foes="1000" cont="0"/>
        <request index="1" response="0100" foes="0100" cont="1"/>
        <request index="2" response="0000" foes="0010" cont="0"/>
        <request index="3" response="0001" foes="0001" cont="1"/>
    </junction>
    <junction id="4014255825" type="traffic_light" x="345.45" y="383.28" incLanes="-107527501#1_0 107527501#0_0" intLanes=":4014255825_0_0 :4014255825_1_0" shape="348.64,383.60 342.31,382.66 342.26,382.98 348.60,383.86">
        <request index="0" response="00" foes="00" cont="0"/>
        <request index="1" response="00" foes="00" cont="0"/>
    </junction>
    <junction id="401452311" type="priority" x="348.45" y="343.40" incLanes="398673171_0 -958659359_0" intLanes=":401452311_0_0 :401452311_1_0 :401452311_6_0 :401452311_3_0 :401452311_7_0 :401452311_8_0" shape="346.89,350.80 350.09,350.78 349.98,348.78 349.95,348.06 350.04,347.37 350.32,346.60 350.84,345.62 345.37,342.30 344.16,343.77 343.58,344.16 342.96,344.50 342.25,344.97 341.39,345.69 345.79,350.33 346.40,349.92 346.61,349.93 346.76,350.08 346.85,350.37">
        <request index="0" response="000000" foes="010000" cont="0"/>
        <request index="1" response="000000" foes="110000" cont="0"/>
        <request index="2" response="001000" foes="001000" cont="1"/>
        <request index="3" response="000000" foes="000100" cont="0"/>
        <request index="4" response="000011" foes="000011" cont="1"/>
        <request index="5" response="000010" foes="000010" cont="1"/>
    </junction>