<?xml version="1.0" encoding="UTF-8"?>

<!-- generated on 2024-09-03 01:38:33 by Eclipse SUMO netconvert Version 1.20.0
<configuration xmlns:xsi="http://www.w3.org/2001/XMLSchema-instance" xsi:noNamespaceSchemaLocation="http://sumo.dlr.de/xsd/netconvertConfiguration.xsd">

    <input>
        <osm-files value="train_files/roundabout/hard/osm_files/map(79).osm"/>
    </input>

    <output>
        <output-file value="train_files/roundabout/hard/outputs/map(79)_dict/map(79)/map(79).net.xml"/>
    </output>

    <projection>
        <proj.utm value="true"/>
    </projection>

    <building_defaults>
        <default.junctions.keep-clear value="false"/>
    </building_defaults>

</configuration>
-->

<net version="1.20" junctionCornerDetail="5" limitTurnSpeed="5.50" xmlns:xsi="http://www.w3.org/2001/XMLSchema-instance" xsi:noNamespaceSchemaLocation="http://sumo.dlr.de/xsd/net_file.xsd">

    <location netOffset="-580141.75,-5628838.74" convBoundary="0.00,0.00,924.12,539.57" origBoundary="4.137387,50.805735,4.150565,50.810581" projParameter="+proj=utm +zone=31 +ellps=WGS84 +datum=WGS84 +units=m +no_defs"/>

    <type id="highway.cycleway" priority="1" numLanes="1" speed="5.56" allow="bicycle" oneway="0" width="2.00"/>
    <type id="highway.footway" priority="1" numLanes="1" speed="2.78" allow="pedestrian" oneway="1" width="2.00"/>
    <type id="highway.residential" priority="3" numLanes="1" speed="13.89" disallow="tram rail_urban rail rail_electric rail_fast ship container cable_car subway aircraft wheelchair scooter drone" oneway="0"/>
    <type id="highway.secondary" priority="11" numLanes="1" speed="27.78" disallow="tram rail_urban rail rail_electric rail_fast ship container cable_car subway aircraft wheelchair scooter drone" oneway="0"/>
    <type id="highway.tertiary" priority="10" numLanes="1" speed="22.22" disallow="tram rail_urban rail rail_electric rail_fast ship container cable_car subway aircraft wheelchair scooter drone" oneway="0"/>

    <edge id=":1386535441_0" function="internal">
        <lane id=":1386535441_0_0" index="0" allow="bicycle" speed="5.56" length="10.90" width="0.75" shape="662.61,77.21 659.51,77.10 657.18,76.65 654.87,76.26 651.79,76.35"/>
    </edge>
    <edge id=":1386535441_1" function="internal">
        <lane id=":1386535441_1_0" index="0" allow="bicycle" speed="1.77" length="0.55" width="0.75" shape="662.61,77.21 662.34,76.99 662.27,76.79"/>
    </edge>
    <edge id=":1386535441_4" function="internal">
        <lane id=":1386535441_4_0" index="0" allow="bicycle" speed="1.77" length="0.55" width="0.75" shape="662.27,76.79 662.38,76.61 662.68,76.45"/>
    </edge>
    <edge id=":1386535441_2" function="internal">
        <lane id=":1386535441_2_0" index="0" allow="bicycle" speed="5.56" length="11.07" width="0.75" shape="651.69,75.61 654.80,75.51 657.17,75.90 659.56,76.35 662.68,76.45"/>
    </edge>
    <edge id=":1386535441_3" function="internal">
        <lane id=":1386535441_3_0" index="0" allow="bicycle" speed="1.77" length="0.55" width="0.75" shape="651.69,75.61 651.99,75.76 652.11,75.93"/>
    </edge>
    <edge id=":1386535441_5" function="internal">
        <lane id=":1386535441_5_0" index="0" allow="bicycle" speed="1.77" length="0.55" width="0.75" shape="652.11,75.93 652.04,76.13 651.79,76.35"/>
    </edge>
    <edge id=":1386535499_0" function="internal">
        <lane id=":1386535499_0_0" index="0" allow="bicycle" speed="1.77" length="1.10" width="0.75" shape="-0.28,0.25 -0.33,-0.08 -0.25,-0.28 -0.05,-0.33 0.28,-0.25"/>
    </edge>
    <edge id=":1390211096_0" function="internal">
        <lane id=":1390211096_0_0" index="0" disallow="tram rail_urban rail rail_electric rail_fast ship container cable_car subway aircraft wheelchair scooter drone" speed="3.65" length="4.67" shape="37.17,540.81 35.74,540.95 34.92,540.58 34.73,539.71 35.15,538.33"/>
    </edge>
    <edge id=":1611000846_0" function="internal">
        <lane id=":1611000846_0_0" index="0" disallow="tram rail_urban rail rail_electric rail_fast ship container cable_car subway aircraft wheelchair scooter drone" speed="3.65" length="4.67" shape="916.46,52.97 917.77,53.57 918.29,54.30 918.01,55.15 916.95,56.13"/>
    </edge>
    <edge id=":1611000873_0" function="internal">
        <lane id=":1611000873_0_0" index="0" disallow="tram rail_urban rail rail_electric rail_fast ship container cable_car subway aircraft wheelchair scooter drone" speed="5.81" length="8.27" shape="688.51,83.73 687.63,82.12 686.18,81.45 684.18,81.70 681.62,82.90"/>
    </edge>
    <edge id=":1611000873_1" function="internal">
        <lane id=":1611000873_1_0" index="0" allow="bicycle" speed="9.72" length="10.71" width="0.75" shape="687.34,84.07 686.31,81.56 684.80,79.45 682.82,77.73 680.37,76.42"/>
    </edge>
    <edge id=":1611000873_2" function="internal">
        <lane id=":1611000873_2_0" index="0" disallow="tram rail_urban rail rail_electric rail_fast ship container cable_car subway aircraft wheelchair scooter drone" speed="6.09" length="8.99" shape="688.51,83.73 687.99,80.86 688.33,78.75 689.53,77.41 691.59,76.82"/>
    </edge>
    <edge id=":1611000873_3" function="internal">
        <lane id=":1611000873_3_0" index="0" disallow="tram rail_urban rail rail_electric rail_fast ship container cable_car subway aircraft wheelchair scooter drone" speed="13.89" length="10.78" shape="691.85,80.01 688.75,80.28 686.48,80.66 684.34,81.44 681.62,82.90"/>
    </edge>
    <edge id=":1611000873_4" function="internal">
        <lane id=":1611000873_4_0" index="0" allow="bicycle" speed="9.72" length="6.31" width="0.75" shape="691.75,78.79 688.52,78.86 685.92,78.48 685.49,78.34"/>
    </edge>
    <edge id=":1611000873_5" function="internal">
        <lane id=":1611000873_5_0" index="0" disallow="tram rail_urban rail rail_electric rail_fast ship container cable_car subway aircraft wheelchair scooter drone" speed="3.65" length="1.44" shape="691.85,80.01 690.59,79.31"/>
    </edge>
    <edge id=":1611000873_12" function="internal">
        <lane id=":1611000873_12_0" index="0" allow="bicycle" speed="9.72" length="5.47" width="0.75" shape="685.49,78.34 683.40,77.66 680.37,76.42"/>
    </edge>
    <edge id=":1611000873_13" function="internal">
        <lane id=":1611000873_13_0" index="0" disallow="tram rail_urban rail rail_electric rail_fast ship container cable_car subway aircraft wheelchair scooter drone" speed="3.65" length="3.23" shape="690.59,79.31 690.12,78.55 690.46,77.72 691.59,76.82"/>
    </edge>
    <edge id=":1611000873_6" function="internal">
        <lane id=":1611000873_6_0" index="0" allow="bicycle" speed="9.72" length="11.03" width="0.75" shape="680.66,75.72 683.60,76.57 685.94,76.54 688.34,76.06 691.49,75.60"/>
    </edge>
    <edge id=":1611000873_7" function="internal">
        <lane id=":1611000873_7_0" index="0" allow="bicycle" speed="5.94" length="12.20" width="0.75" shape="680.66,75.72 684.19,77.67 685.63,79.69 684.98,81.78 682.24,83.95"/>
    </edge>
    <edge id=":1611000873_8" function="internal">
        <lane id=":1611000873_8_0" index="0" allow="bicycle" speed="1.77" length="1.10" width="0.75" shape="680.66,75.72 680.85,76.01 680.86,76.21 680.71,76.35 680.37,76.42"/>
    </edge>
    <edge id=":1611000873_9" function="internal">
        <lane id=":1611000873_9_0" index="0" allow="bicycle" speed="3.67" length="3.23" width="0.75" shape="680.13,78.64 681.02,77.99 681.35,77.41 681.14,76.88 680.37,76.42"/>
    </edge>
    <edge id=":1611000873_10" function="internal">
        <lane id=":1611000873_10_0" index="0" disallow="tram rail_urban rail rail_electric rail_fast ship container cable_car subway aircraft wheelchair scooter drone" speed="13.89" length="11.35" shape="680.75,79.70 683.57,78.24 685.92,77.47 688.40,77.09 691.59,76.82"/>
    </edge>
    <edge id=":1611000873_11" function="internal">
        <lane id=":1611000873_11_0" index="0" disallow="tram rail_urban rail rail_electric rail_fast ship container cable_car subway aircraft wheelchair scooter drone" speed="3.69" length="1.36" shape="680.75,79.70 682.04,80.13"/>
    </edge>
    <edge id=":1611000873_14" function="internal">
        <lane id=":1611000873_14_0" index="0" disallow="tram rail_urban rail rail_electric rail_fast ship container cable_car subway aircraft wheelchair scooter drone" speed="3.69" length="3.48" shape="682.04,80.13 682.17,80.17 682.78,80.86 682.60,81.77 681.62,82.90"/>
    </edge>
    <edge id=":1611000876_0" function="internal">
        <lane id=":1611000876_0_0" index="0" disallow="tram rail_urban rail rail_electric rail_fast ship container cable_car subway aircraft wheelchair scooter drone" speed="13.89" length="5.44" shape="651.65,80.33 653.24,80.10 654.35,80.02 655.45,80.07 657.06,80.25"/>
    </edge>
    <edge id=":1611000928_0" function="internal">
        <lane id=":1611000928_0_0" index="0" disallow="tram rail_urban rail rail_electric rail_fast ship container cable_car subway aircraft wheelchair scooter drone" speed="7.53" length="8.61" shape="674.48,87.16 672.89,88.51 671.86,90.22 671.41,92.28 671.53,94.69"/>
    </edge>
    <edge id=":1611000928_1" function="internal">
        <lane id=":1611000928_1_0" index="0" disallow="tram rail_urban rail rail_electric rail_fast ship container cable_car subway aircraft wheelchair scooter drone" speed="7.32" length="8.42" shape="664.93,83.58 666.99,84.82 668.98,85.38 670.91,85.26 672.76,84.46"/>
    </edge>
    <edge id=":1611000928_2" function="internal">
        <lane id=":1611000928_2_0" index="0" disallow="tram rail_urban rail rail_electric rail_fast ship container cable_car subway aircraft wheelchair scooter drone" speed="12.17" length="13.29" shape="664.93,83.58 667.53,85.89 669.44,88.41 670.73,91.29 671.53,94.69"/>
    </edge>
    <edge id=":1611001002_0" function="internal">
        <lane id=":1611001002_0_0" index="0" disallow="tram rail_urban rail rail_electric rail_fast ship container cable_car subway aircraft wheelchair scooter drone" speed="13.89" length="5.38" shape="670.91,102.53 670.36,104.03 669.92,105.03 669.37,105.98 668.50,107.32"/>
    </edge>
    <edge id=":1611001005_0" function="internal">
        <lane id=":1611001005_0_0" index="0" disallow="tram rail_urban rail rail_electric rail_fast ship container cable_car subway aircraft wheelchair scooter drone" speed="13.89" length="5.39" shape="641.90,109.06 640.85,107.84 640.19,106.97 639.62,106.03 638.88,104.61"/>
    </edge>
    <edge id=":1611001033_0" function="internal">
        <lane id=":1611001033_0_0" index="0" disallow="tram rail_urban rail rail_electric rail_fast ship container cable_car subway aircraft wheelchair scooter drone" speed="15.96" length="7.01" shape="655.08,123.08 654.99,125.15 654.80,126.57 654.34,127.93 653.48,129.81"/>
    </edge>
    <edge id=":1611001033_1" function="internal">
        <lane id=":1611001033_1_0" index="0" disallow="tram rail_urban rail rail_electric rail_fast ship container cable_car subway aircraft wheelchair scooter drone" speed="14.39" length="5.67" shape="650.59,128.42 651.30,126.90 651.66,125.80 651.81,124.65 651.88,122.97"/>
    </edge>
    <edge id=":1915721854_0" function="internal">
        <lane id=":1915721854_0_0" index="0" disallow="tram rail_urban rail rail_electric rail_fast ship container cable_car subway aircraft wheelchair scooter drone" speed="7.30" length="8.68" shape="660.37,113.46 658.17,114.43 656.57,115.78 655.58,117.53 655.20,119.66"/>
    </edge>
    <edge id=":1915721854_1" function="internal">
        <lane id=":1915721854_1_0" index="0" disallow="tram rail_urban rail rail_electric rail_fast ship container cable_car subway aircraft wheelchair scooter drone" speed="13.34" length="13.43" shape="660.37,113.46 656.95,114.26 653.75,114.44 650.57,114.00 647.24,112.90"/>
    </edge>
    <edge id=":1915721854_2" function="internal">
        <lane id=":1915721854_2_0" index="0" disallow="tram rail_urban rail rail_electric rail_fast ship container cable_car subway aircraft wheelchair scooter drone" speed="7.44" length="8.84" shape="652.00,119.65 651.76,117.45 650.89,115.60 649.38,114.08 647.24,112.90"/>
    </edge>
    <edge id=":1915721859_0" function="internal">
        <lane id=":1915721859_0_0" index="0" disallow="tram rail_urban rail rail_electric rail_fast ship container cable_car subway aircraft wheelchair scooter drone" speed="7.55" length="8.48" shape="634.80,86.57 636.72,87.12 638.66,87.01 640.62,86.24 642.60,84.82"/>
    </edge>
    <edge id=":1915721859_1" function="internal">
        <lane id=":1915721859_1_0" index="0" disallow="tram rail_urban rail rail_electric rail_fast ship container cable_car subway aircraft wheelchair scooter drone" speed="7.58" length="8.83" shape="637.25,96.70 637.07,94.21 636.35,92.17 635.10,90.57 633.31,89.41"/>
    </edge>
    <edge id=":1915721859_2" function="internal">
        <lane id=":1915721859_2_0" index="0" disallow="tram rail_urban rail rail_electric rail_fast ship container cable_car subway aircraft wheelchair scooter drone" speed="11.72" length="13.40" shape="637.25,96.70 637.68,93.19 638.71,90.04 640.35,87.25 642.60,84.82"/>
    </edge>
    <edge id=":2629305796_0" function="internal">
        <lane id=":2629305796_0_0" index="0" disallow="tram rail_urban rail rail_electric rail_fast ship container cable_car subway aircraft wheelchair scooter drone" speed="13.89" length="5.34" shape="631.86,88.75 630.41,88.11 629.40,87.73 628.35,87.45 626.80,87.10"/>
    </edge>
    <edge id=":2629305796_1" function="internal">
        <lane id=":2629305796_1_0" index="0" disallow="tram rail_urban rail rail_electric rail_fast ship container cable_car subway aircraft wheelchair scooter drone" speed="13.89" length="5.99" shape="627.51,83.97 629.24,84.37 630.42,84.69 631.56,85.12 633.18,85.84"/>
    </edge>
    <edge id=":2629317565_0" function="internal">
        <lane id=":2629317565_0_0" index="0" allow="bicycle" speed="5.56" length="5.21" width="0.75" shape="635.24,78.97 630.05,79.37"/>
    </edge>
    <edge id=":2629317565_1" function="internal">
        <lane id=":2629317565_1_0" index="0" allow="bicycle" speed="1.77" length="0.55" width="0.75" shape="635.24,78.97 634.95,78.80 634.84,78.62"/>
    </edge>
    <edge id=":2629317565_4" function="internal">
        <lane id=":2629317565_4_0" index="0" allow="bicycle" speed="1.77" length="0.55" width="0.75" shape="634.84,78.62 634.92,78.42 635.19,78.22"/>
    </edge>
    <edge id=":2629317565_2" function="internal">
        <lane id=":2629317565_2_0" index="0" allow="bicycle" speed="5.56" length="5.22" width="0.75" shape="629.98,78.62 635.19,78.22"/>
    </edge>
    <edge id=":2629317565_3" function="internal">
        <lane id=":2629317565_3_0" index="0" allow="bicycle" speed="1.77" length="0.55" width="0.75" shape="629.98,78.62 630.28,78.79 630.39,78.97"/>
    </edge>
    <edge id=":2629317565_5" function="internal">
        <lane id=":2629317565_5_0" index="0" allow="bicycle" speed="1.77" length="0.55" width="0.75" shape="630.39,78.97 630.31,79.16 630.05,79.37"/>
    </edge>
    <edge id=":8344198423_0" function="internal">
        <lane id=":8344198423_0_0" index="0" disallow="tram rail_urban rail rail_electric rail_fast ship container cable_car subway aircraft wheelchair scooter drone" speed="3.65" length="4.67" shape="292.21,104.32 291.02,103.52 290.62,102.72 291.03,101.92 292.23,101.12"/>
    </edge>
    <edge id=":8772675159_0" function="internal">
        <lane id=":8772675159_0_0" index="0" disallow="tram rail_urban rail rail_electric rail_fast ship container cable_car subway aircraft wheelchair scooter drone" speed="11.11" length="3.55" shape="695.60,79.79 692.05,79.99"/>
    </edge>
    <edge id=":8772675159_1" function="internal">
        <lane id=":8772675159_1_0" index="0" disallow="tram rail_urban rail rail_electric rail_fast ship container cable_car subway aircraft wheelchair scooter drone" speed="11.11" length="3.67" shape="691.79,76.81 695.45,76.60"/>
    </edge>
    <edge id=":8781376104_0" function="internal">
        <lane id=":8781376104_0_0" index="0" disallow="tram rail_urban rail rail_electric rail_fast ship container cable_car subway aircraft wheelchair scooter drone" speed="13.89" length="3.92" shape="688.81,87.81 688.77,86.64 688.82,85.84 688.81,85.04 688.57,83.92"/>
    </edge>

    <edge id="-1220079448#0" from="1611000873" to="8772675159" priority="11" type="highway.secondary">
        <lane id="-1220079448#0_0" index="0" disallow="tram rail_urban rail rail_electric rail_fast ship container cable_car subway aircraft wheelchair scooter drone" speed="13.89" length="0.20" shape="691.59,76.82 691.79,76.81"/>
        <param key="ref" value="N282"/>
    </edge>
    <edge id="-1220079448#1" from="1611000928" to="1611000873" priority="11" type="highway.secondary" shape="669.45,88.46 671.91,86.88 675.99,84.33 684.13,79.57 687.06,78.80">
        <lane id="-1220079448#1_0" index="0" disallow="tram rail_urban rail rail_electric rail_fast ship container cable_car subway aircraft wheelchair scooter drone" speed="13.89" length="9.31" shape="672.76,84.46 675.16,82.96 680.75,79.70"/>
        <param key="ref" value="N282"/>
    </edge>
    <edge id="-124596532#0" from="2629317565" to="1386535499" priority="1" type="highway.cycleway" shape="632.96,78.75 618.96,79.94 490.69,91.78 418.07,98.30 376.07,99.03 312.76,97.99 297.34,94.72 265.93,95.12 248.87,98.03 147.58,98.82 123.01,97.31 112.72,95.62 102.66,92.85 92.03,88.99 81.63,83.85 72.52,78.47 63.88,71.14 0.00,0.00">
        <lane id="-124596532#0_0" index="0" allow="bicycle" speed="5.56" length="670.18" width="0.75" shape="630.05,79.37 618.99,80.32 490.73,92.15 418.09,98.67 376.07,99.40 312.72,98.37 297.30,95.09 265.97,95.50 248.91,98.40 147.57,99.20 122.97,97.68 112.64,95.98 102.55,93.21 91.88,89.34 81.45,84.18 72.31,78.78 63.62,71.41 -0.28,0.25"/>
    </edge>
    <edge id="-124596532#1" from="1386535441" to="2629317565" priority="1" type="highway.cycleway" shape="654.31,75.65 650.19,76.18 644.76,77.94 632.96,78.75">
        <lane id="-124596532#1_0" index="0" allow="bicycle" speed="5.56" length="16.86" width="0.75" shape="651.79,76.35 650.27,76.55 644.83,78.31 635.24,78.97"/>
    </edge>
    <edge id="-124596532#2" from="1611000873" to="1386535441" priority="1" type="highway.cycleway" shape="687.06,78.80 680.02,75.86 662.52,76.84 659.25,76.13 654.31,75.65">
        <lane id="-124596532#2_0" index="0" allow="bicycle" speed="5.56" length="17.83" width="0.75" shape="680.37,76.42 679.95,76.24 662.61,77.21"/>
    </edge>
    <edge id="-181132640" from="8772675159" to="1611000846" priority="11" type="highway.secondary" shape="693.02,78.31 699.39,78.02 809.59,71.06 841.29,66.25 872.87,61.35 916.70,54.55">
        <lane id="-181132640_0" index="0" disallow="tram rail_urban rail rail_electric rail_fast ship container cable_car subway aircraft wheelchair scooter drone" speed="8.33" length="222.50" shape="695.45,76.60 699.31,76.42 809.42,69.46 841.05,64.67 872.63,59.77 916.46,52.97"/>
        <param key="ref" value="N282"/>
    </edge>
    <edge id="-181132641#0" from="1611001033" to="1915721854" priority="10" type="highway.tertiary" shape="653.37,126.34 653.68,117.10 653.69,114.57">
        <lane id="-181132641#0_0" index="0" disallow="tram rail_urban rail rail_electric rail_fast ship container cable_car subway aircraft wheelchair scooter drone" speed="22.22" length="3.32" shape="651.88,122.97 652.00,119.65"/>
    </edge>
    <edge id="-181132641#1" from="1390211096" to="1611001033" priority="10" type="highway.tertiary" shape="36.16,539.57 107.39,481.48 204.14,402.69 242.42,372.98 292.23,340.12 381.03,293.27 569.69,201.19 592.73,186.80 596.73,184.30 631.68,155.31 645.19,139.64 650.06,133.21 653.37,126.34">
        <lane id="-181132641#1_0" index="0" disallow="tram rail_urban rail rail_electric rail_fast ship container cable_car subway aircraft wheelchair scooter drone" speed="22.22" length="745.04" shape="35.15,538.33 106.38,480.24 203.14,401.44 241.49,371.68 291.41,338.74 380.30,291.85 568.92,199.79 591.88,185.44 595.79,183.00 630.56,154.17 643.94,138.64 648.69,132.37 650.59,128.42"/>
    </edge>
    <edge id="-257374254#0" from="2629305796" to="1915721859" priority="11" type="highway.secondary" shape="630.11,86.20 635.99,88.87 638.59,90.23">
        <lane id="-257374254#0_0" index="0" disallow="tram rail_urban rail rail_electric rail_fast ship container cable_car subway aircraft wheelchair scooter drone" speed="13.89" length="1.77" shape="633.18,85.84 634.80,86.57"/>
        <param key="ref" value="N282"/>
    </edge>
    <edge id="-257374254#1" from="8344198423" to="2629305796" priority="11" type="highway.secondary" shape="292.22,102.72 375.95,103.08 417.91,102.09 443.79,99.97 491.01,96.12 541.51,91.30 557.05,89.82 560.20,89.52 584.26,87.28 610.24,85.05 619.80,84.53 624.91,85.03 630.11,86.20">
        <lane id="-257374254#1_0" index="0" disallow="tram rail_urban rail rail_electric rail_fast ship container cable_car subway aircraft wheelchair scooter drone" speed="13.89" length="336.15" shape="292.23,101.12 375.94,101.48 417.83,100.49 443.66,98.38 490.87,94.53 541.35,89.71 556.90,88.22 560.05,87.93 584.12,85.69 610.13,83.45 619.83,82.92 625.16,83.45 627.51,83.97"/>
        <param key="ref" value="N282"/>
    </edge>
    <edge id="120066705#0" from="1347154725" to="8781376104" priority="3" type="highway.residential" spreadType="center" shape="924.12,295.55 910.85,291.54 894.49,277.25 850.32,219.33 846.77,215.83 835.08,208.26 811.17,205.78 797.16,202.51 786.51,198.28 776.32,190.97 770.15,183.58 767.31,178.33 766.37,169.48 773.07,143.62 774.21,134.10 772.83,127.15 767.52,120.47 762.35,117.48 689.14,91.23 688.51,84.75">
        <lane id="120066705#0_0" index="0" disallow="tram rail_urban rail rail_electric rail_fast ship container cable_car subway aircraft wheelchair scooter drone" speed="13.89" length="353.36" shape="924.12,295.55 910.85,291.54 894.49,277.25 850.32,219.33 846.77,215.83 835.08,208.26 811.17,205.78 797.16,202.51 786.51,198.28 776.32,190.97 770.15,183.58 767.31,178.33 766.37,169.48 773.07,143.62 774.21,134.10 772.83,127.15 767.52,120.47 762.35,117.48 689.14,91.23 688.81,87.81"/>
    </edge>
    <edge id="120066705#1" from="8781376104" to="1611000873" priority="3" type="highway.residential" spreadType="center" shape="688.51,84.75 688.38,83.28 687.06,78.80">
        <lane id="120066705#1_0" index="0" disallow="tram rail_urban rail rail_electric rail_fast ship container cable_car subway aircraft wheelchair scooter drone" speed="13.89" length="0.20" shape="688.57,83.92 688.51,83.73"/>
    </edge>
    <edge id="1220078893" from="2629317583" to="8788362128" priority="1" type="highway.footway" spreadType="center">
        <lane id="1220078893_0" index="0" allow="pedestrian" speed="2.78" length="1.40" width="2.00" shape="643.97,104.29 642.85,105.12"/>
    </edge>
    <edge id="1220078894" from="8788362129" to="2629317581" priority="1" type="highway.footway" spreadType="center" shape="667.32,103.75 663.95,102.18 663.93,98.66">
        <lane id="1220078894_0" index="0" allow="pedestrian" speed="2.78" length="6.08" width="2.00" shape="667.19,103.69 663.95,102.18 663.93,99.68"/>
    </edge>
    <edge id="1220079448#0" from="8772675159" to="1611000873" priority="11" type="highway.secondary">
        <lane id="1220079448#0_0" index="0" disallow="tram rail_urban rail rail_electric rail_fast ship container cable_car subway aircraft wheelchair scooter drone" speed="13.89" length="0.20" shape="692.05,79.99 691.85,80.01"/>
        <param key="ref" value="N282"/>
    </edge>
    <edge id="1220079448#1" from="1611000873" to="1611000928" priority="11" type="highway.secondary" shape="687.06,78.80 684.13,79.57 675.99,84.33 671.91,86.88 669.45,88.46">
        <lane id="1220079448#1_0" index="0" disallow="tram rail_urban rail rail_electric rail_fast ship container cable_car subway aircraft wheelchair scooter drone" speed="13.89" length="8.31" shape="681.62,82.90 676.82,85.70 674.48,87.16"/>
        <param key="ref" value="N282"/>
    </edge>
    <edge id="124596532#0" from="1386535499" to="2629317565" priority="1" type="highway.cycleway" shape="0.00,0.00 63.88,71.14 72.52,78.47 81.63,83.85 92.03,88.99 102.66,92.85 112.72,95.62 123.01,97.31 147.58,98.82 248.87,98.03 265.93,95.12 297.34,94.72 312.76,97.99 376.07,99.03 418.07,98.30 490.69,91.78 618.96,79.94 632.96,78.75">
        <lane id="124596532#0_0" index="0" allow="bicycle" speed="5.56" length="669.49" width="0.75" shape="0.28,-0.25 64.15,70.87 72.74,78.16 81.81,83.52 92.18,88.65 102.78,92.49 112.80,95.25 123.05,96.94 147.59,98.45 248.84,97.65 265.90,94.75 297.37,94.34 312.80,97.62 376.07,98.65 418.05,97.92 490.66,91.41 618.92,79.57 629.98,78.62"/>
    </edge>
    <edge id="124596532#1" from="2629317565" to="1386535441" priority="1" type="highway.cycleway" shape="632.96,78.75 644.76,77.94 650.19,76.18 654.31,75.65">
        <lane id="124596532#1_0" index="0" allow="bicycle" speed="5.56" length="16.81" width="0.75" shape="635.19,78.22 644.68,77.57 650.11,75.81 651.69,75.61"/>
    </edge>
    <edge id="124596532#2" from="1386535441" to="1611000873" priority="1" type="highway.cycleway" shape="654.31,75.65 659.25,76.13 662.52,76.84 680.02,75.86 687.06,78.80">
        <lane id="124596532#2_0" index="0" allow="bicycle" speed="5.56" length="18.06" width="0.75" shape="662.68,76.45 680.08,75.48 680.66,75.72"/>
    </edge>
    <edge id="147988334#0" from="1915721854" to="1611001005" priority="11" type="highway.secondary" spreadType="center" shape="653.69,114.57 649.76,113.93 646.07,112.42 642.82,110.11 640.13,107.04">
        <lane id="147988334#0_0" index="0" disallow="tram rail_urban rail rail_electric rail_fast ship container cable_car subway aircraft wheelchair scooter drone" speed="13.89" length="6.66" shape="647.24,112.90 646.07,112.42 642.82,110.11 641.90,109.06"/>
        <param key="ref" value="N282"/>
    </edge>
    <edge id="147988334#1" from="1611001005" to="1915721859" priority="11" type="highway.secondary" spreadType="center" shape="640.13,107.04 638.16,103.20 637.18,98.89 637.32,94.46 638.59,90.23">
        <lane id="147988334#1_0" index="0" disallow="tram rail_urban rail rail_electric rail_fast ship container cable_car subway aircraft wheelchair scooter drone" speed="13.89" length="8.20" shape="638.88,104.61 638.16,103.20 637.18,98.89 637.25,96.70"/>
        <param key="ref" value="N282"/>
    </edge>
    <edge id="147988334#2" from="1915721859" to="1611000876" priority="11" type="highway.secondary" spreadType="center" shape="638.59,90.23 641.22,86.04 644.93,82.77 649.42,80.67 654.35,79.92">
        <lane id="147988334#2_0" index="0" disallow="tram rail_urban rail rail_electric rail_fast ship container cable_car subway aircraft wheelchair scooter drone" speed="13.89" length="10.32" shape="642.60,84.82 644.93,82.77 649.42,80.67 651.65,80.33"/>
        <param key="ref" value="N282"/>
    </edge>
    <edge id="147988334#3" from="1611000876" to="1611000928" priority="11" type="highway.secondary" spreadType="center" shape="654.35,79.92 658.83,80.47 663.03,82.16 666.66,84.89 669.45,88.46">
        <lane id="147988334#3_0" index="0" disallow="tram rail_urban rail rail_electric rail_fast ship container cable_car subway aircraft wheelchair scooter drone" speed="13.89" length="8.68" shape="657.06,80.25 658.83,80.47 663.03,82.16 664.93,83.58"/>
        <param key="ref" value="N282"/>
    </edge>
    <edge id="181132640" from="1611000846" to="8772675159" priority="11" type="highway.secondary" shape="916.70,54.55 872.87,61.35 841.29,66.25 809.59,71.06 699.39,78.02 693.02,78.31">
        <lane id="181132640_0" index="0" disallow="tram rail_urban rail rail_electric rail_fast ship container cable_car subway aircraft wheelchair scooter drone" speed="8.33" length="222.84" shape="916.95,56.13 873.12,62.93 841.53,67.84 809.76,72.65 699.48,79.62 695.60,79.79"/>
        <param key="ref" value="N282"/>
    </edge>
    <edge id="181132641#0" from="1915721854" to="1611001033" priority="10" type="highway.tertiary" shape="653.69,114.57 653.68,117.10 653.37,126.34">
        <lane id="181132641#0_0" index="0" disallow="tram rail_urban rail rail_electric rail_fast ship container cable_car subway aircraft wheelchair scooter drone" speed="22.22" length="3.42" shape="655.20,119.66 655.08,123.08"/>
    </edge>
    <edge id="181132641#1" from="1611001033" to="1390211096" priority="10" type="highway.tertiary" shape="653.37,126.34 650.06,133.21 645.19,139.64 631.68,155.31 596.73,184.30 592.73,186.80 569.69,201.19 381.03,293.27 292.23,340.12 242.42,372.98 204.14,402.69 107.39,481.48 36.16,539.57">
        <lane id="181132641#1_0" index="0" disallow="tram rail_urban rail rail_electric rail_fast ship container cable_car subway aircraft wheelchair scooter drone" speed="22.22" length="746.44" shape="653.48,129.81 651.43,134.05 646.43,140.65 632.81,156.46 597.67,185.60 593.58,188.16 570.47,202.59 381.75,294.70 293.04,341.50 243.36,374.28 205.13,403.94 108.40,482.72 37.17,540.81"/>
    </edge>
    <edge id="257374254#0" from="1915721859" to="2629305796" priority="11" type="highway.secondary" shape="638.59,90.23 635.99,88.87 630.11,86.20">
        <lane id="257374254#0_0" index="0" disallow="tram rail_urban rail rail_electric rail_fast ship container cable_car subway aircraft wheelchair scooter drone" speed="13.89" length="1.59" shape="633.31,89.41 631.86,88.75"/>
        <param key="ref" value="N282"/>
    </edge>
    <edge id="257374254#1" from="2629305796" to="8344198423" priority="11" type="highway.secondary" shape="630.11,86.20 624.91,85.03 619.80,84.53 610.24,85.05 584.26,87.28 560.20,89.52 557.05,89.82 541.51,91.30 491.01,96.12 443.79,99.97 417.91,102.09 375.95,103.08 292.22,102.72">