<?xml version="1.0" encoding="iso-8859-1"?>

<configuration xmlns:xsi="http://www.w3.org/2001/XMLSchema-instance" xsi:noNamespaceSchemaLocation="http://sumo.dlr.de/xsd/duarouterConfiguration.xsd">

    <input>
        <net-file value="map(101)/map(101).net.xml"/>
        <route-files value="map(101)/map(101).rou.xml"/>
    </input>

    <time>
        <begin value="0"/>
        <end value="86400"/>
    </time>

</configuration>
