<?xml version="1.0" encoding="UTF-8"?>

<!-- generated on 2024-09-03 01:36:58.201410 by randomTrips.py UNKNOWN
<configuration>
    <net-file value="train_files/roundabout/easy/outputs/map(57)_dict/map(57)/map(57).net.xml"/>
    <output-trip-file value="train_files/roundabout/easy/outputs/map(57)_dict/map(57)/map(57).trips.xml"/>
    <fringe-factor value="max"/>
    <validate value="True"/>
    <period value="3.6"/>
</configuration>
-->

<!-- generated on 2024-09-03 01:36:58 by Eclipse SUMO duarouter Version 1.20.0
<configuration xmlns:xsi="http://www.w3.org/2001/XMLSchema-instance" xsi:noNamespaceSchemaLocation="http://sumo.dlr.de/xsd/duarouterConfiguration.xsd">

    <input>
        <net-file value="train_files/roundabout/easy/outputs/map(57)_dict/map(57)/map(57).net.xml"/>
        <route-files value="train_files/roundabout/easy/outputs/map(57)_dict/map(57)/map(57).trips.xml"/>
    </input>

    <output>
        <output-file value="train_files/roundabout/easy/outputs/map(57)_dict/map(57)/map(57).trips.xml.tmp"/>
        <alternatives-output value="NUL"/>
        <write-trips value="true"/>
    </output>

    <time>
        <begin value="0"/>
        <end value="3600"/>
    </time>

    <report>
        <no-warnings value="true"/>
        <ignore-errors value="true"/>
        <no-step-log value="true"/>
    </report>

</configuration>
-->

<routes xmlns:xsi="http://www.w3.org/2001/XMLSchema-instance" xsi:noNamespaceSchemaLocation="http://sumo.dlr.de/xsd/routes_file.xsd">
    <trip id="0" depart="0.00" from="29110230" to="-29110230"/>
    <trip id="3" depart="10.80" from="548557132#0" to="-29110230"/>
    <trip id="4" depart="14.40" from="19922965#0" to="-29110230"/>
    <trip id="5" depart="18.00" from="10345998" to="19923016"/>
    <trip id="6" depart="21.60" from="-432864793#2" to="19922980#2"/>
    <trip id="11" depart="39.60" from="19922965#0" to="19922980#2"/>
    <trip id="13" depart="46.80" from="-432864793#2" to="-29110230"/>
    <trip id="16" depart="57.60" from="19923100#0" to="432864793#2"/>
    <trip id="19" depart="68.40" from="548557132#0" to="19923064#1"/>
    <trip id="20" depart="72.00" from="29110230" to="-29110230"/>
    <trip id="22" depart="79.20" from="-432864793#2" to="19922980#2"/>
    <trip id="23" depart="82.80" from="-432864793#2" to="19922980#2"/>
    <trip id="25" depart="90.00" from="19922965#0" to="19922980#2"/>
    <trip id="27" depart="97.20" from="29110230" to="19923064#1"/>
    <trip id="30" depart="108.00" from="548557132#0" to="19923064#1"/>
    <trip id="31" depart="111.60" from="19923100#0" to="19923064#1"/>
    <trip id="34" depart="122.40" from="19922965#0" to="19922980#2"/>
    <trip id="40" depart="144.00" from="19923100#0" to="19922980#2"/>
    <trip id="41" depart="147.60" from="29110230" to="432864793#2"/>
    <trip id="42" depart="151.20" from="19922965#0" to="19922980#2"/>
    <trip id="44" depart="158.40" from="-432864793#2" to="-29110230"/>
    <trip id="45" depart="162.00" from="-432864793#2" to="19923064#1"/>
    <trip id="46" depart="165.60" from="52985347" to="19923007"/>
    <trip id="49" depart="176.40" from="548557132#0" to="432864793#2"/>
    <trip id="50" depart="180.00" from="-432864793#2" to="4039300#1"/>
    <trip id="54" depart="194.40" from="19923100#0" to="432864793#2"/>
    <trip id="55" depart="198.00" from="548557132#0" to="19922980#2"/>
    <trip id="56" depart="201.60" from="19923100#0" to="19922980#2"/>
    <trip id="57" depart="205.20" from="548557132#0" to="432864793#2"/>
    <trip id="58" depart="208.80" from="19922965#0" to="19923064#1"/>
    <trip id="59" depart="212.40" from="29110230" to="19922980#2"/>
    <trip id="63" depart="226.80" from="-432864793#2" to="432864793#2"/>
    <trip id="64" depart="230.40" from="548557132#0" to="4039300#1"/>
    <trip id="65" depart="234.00" from="19922965#0" to="-29110230"/>
    <trip id="66" depart="237.60" from="548557132#0" to="432864793#2"/>
    <trip id="68" depart="244.80" from="-432864793#2" to="4039300#1"/>
    <trip id="72" depart="259.20" from="19922965#0" to="19922980#2"/>
    <trip id="73" depart="262.80" from="19923100#0" to="4039300#1"/>
    <trip id="75" depart="270.00" from="548557132#0" to="19923064#1"/>
    <trip id="77" depart="277.20" from="-432864793#2" to="19922980#2"/>
    <trip id="78" depart="280.80" from="19922965#0" to="19923064#1"/>
    <trip id="80" depart="288.00" from="-432864793#2" to="19923064#1"/>
    <trip id="82" depart="295.20" from="548557132#0" to="-29110230"/>
    <trip id="86" depart="309.60" from="19923100#0" to="4039300#1"/>
    <trip id="91" depart="327.60" from="548557132#0" to="-29110230"/>
    <trip id="93" depart="334.80" from="548557132#0" to="19922980#2"/>
    <trip id="94" depart="338.40" from="10345998" to="19923016"/>
    <trip id="95" depart="342.00" from="19922965#0" to="19922980#2"/>
    <trip id="97" depart="349.20" from="19923100#0" to="432864793#2"/>
    <trip id="98" depart="352.80" from="19923100#0" to="-29110230"/>
    <trip id="99" depart="356.40" from="548557132#0" to="4039300#1"/>
    <trip id="100" depart="360.00" from="548557132#0" to="432864793#2"/>
    <trip id="102" depart="367.20" from="19923100#0" to="19922980#2"/>
    <trip id="103" depart="370.80" from="19922965#0" to="-29110230"/>
    <trip id="104" depart="374.40" from="19922965#0" to="432864793#2"/>
    <trip id="107" depart="385.20" from="548557132#0" to="432864793#2"/>
    <trip id="108" depart="388.80" from="19923100#0" to="4039300#1"/>
    <trip id="110" depart="396.00" from="548557132#0" to="19923064#1"/>
    <trip id="111" depart="399.60" from="19923100#0" to="4039300#1"/>
    <trip id="112" depart="403.20" from="-432864793#2" to="19923064#1"/>
    <trip id="113" depart="406.80" from="19923100#0" to="4039300#1"/>
    <trip id="115" depart="414.00" from="-432864793#2" to="19922980#2"/>
    <trip id="116" depart="417.60" from="29110230" to="19923064#1"/>
    <trip id="118" depart="424.80" from="548557132#0" to="19922980#2"/>
    <trip id="119" depart="428.40" from="29110230" to="19923064#1"/>
    <trip id="120" depart="432.00" from="19922965#0" to="19923064#1"/>
    <trip id="121" depart="435.60" from="19923100#0" to="432864793#2"/>
    <trip id="125" depart="450.00" from="19922965#0" to="4039300#1"/>
    <trip id="127" depart="457.20" from="548557132#0" to="432864793#2"/>
    <trip id="128" depart="460.80" from="-432864793#2" to="19922980#2"/>
    <trip id="130" depart="468.00" from="548557132#0" to="432864793#2"/>
    <trip id="131" depart="471.60" from="19922965#0" to="19922980#2"/>
    <trip id="133" depart="478.80" from="29110230" to="432864793#2"/>
    <trip id="134" depart="482.40" from="29110230" to="-29110230"/>
    <trip id="135" depart="486.00" from="52985347" to="19923007"/>
    <trip id="136" depart="489.60" from="29110230" to="432864793#2"/>
    <trip id="137" depart="493.20" from="-432864793#2" to="-29110230"/>
    <trip id="141" depart="507.60" from="29110230" to="19922980#2"/>
    <trip id="142" depart="511.20" from="19923100#0" to="432864793#2"/>
    <trip id="144" depart="518.40" from="19922965#0" to="19922980#2"/>
    <trip id="145" depart="522.00" from="-432864793#2" to="4039300#1"/>
    <trip id="146" depart="525.60" from="29110230" to="19922980#2"/>
    <trip id="148" depart="532.80" from="19922965#0" to="-29110230"/>
    <trip id="149" depart="536.40" from="-432864793#2" to="432864793#2"/>
    <trip id="153" depart="550.80" from="19922965#0" to="432864793#2"/>
    <trip id="155" depart="558.00" from="548557132#0" to="19922980#2"/>
    <trip id="158" depart="568.80" from="19922965#0" to="19923064#1"/>
    <trip id="160" depart="576.00" from="548557132#0" to="432864793#2"/>
    <trip id="162" depart="583.20" from="-432864793#2" to="4039300#1"/>
    <trip id="163" depart="586.80" from="19922965#0" to="432864793#2"/>
    <trip id="167" depart="601.20" from="548557132#0" to="432864793#2"/>
    <trip id="171" depart="615.60" from="-432864793#2" to="19922980#2"/>
    <trip id="172" depart="619.20" from="19922965#0" to="432864793#2"/>
    <trip id="173" depart="622.80" from="548557132#0" to="19922980#2"/>
    <trip id="176" depart="633.60" from="548557132#0" to="-29110230"/>
    <trip id="177" depart="637.20" from="548557132#0" to="19922980#2"/>
    <trip id="178" depart="640.80" from="548557132#0" to="19922980#2"/>
    <trip id="180" depart="648.00" from="52985347" to="19923007"/>
    <trip id="182" depart="655.20" from="19922965#0" to="19923064#1"/>
    <trip id="184" depart="662.40" from="-432864793#2" to="432864793#2"/>
    <trip id="185" depart="666.00" from="19923100#0" to="4039300#1"/>
    <trip id="187" depart="673.20" from="19922965#0" to="-29110230"/>
    <trip id="189" depart="680.40" from="19922965#0" to="4039300#1"/>
    <trip id="190" depart="684.00" from="52985347" to="19923007"/>
    <trip id="194" depart="698.40" from="548557132#0" to="19923064#1"/>
    <trip id="195" depart="702.00" from="548557132#0" to="19923064#1"/>
    <trip id="198" depart="712.80" from="19923100#0" to="19923064#1"/>
    <trip id="200" depart="720.00" from="19923100#0" to="19922980#2"/>
    <trip id="201" depart="723.60" from="19923100#0" to="432864793#2"/>
    <trip id="206" depart="741.60" from="29110230" to="19922980#2"/>
    <trip id="208" depart="748.80" from="10345998" to="19923016"/>
    <trip id="210" depart="756.00" from="19922965#0" to="19923064#1"/>
    <trip id="212" depart="763.20" from="19923100#0" to="19922980#2"/>
    <trip id="213" depart="766.80" from="29110230" to="-29110230"/>
    <trip id="217" depart="781.20" from="19923100#0" to="-29110230"/>
    <trip id="219" depart="788.40" from="19923100#0" to="4039300#1"/>
    <trip id="220" depart="792.00" from="29110230" to="432864793#2"/>
    <trip id="221" depart="795.60" from="29110230" to="432864793#2"/>
    <trip id="222" depart="799.20" from="548557132#0" to="19923064#1"/>
    <trip id="225" depart="810.00" from="548557132#0" to="4039300#1"/>
    <trip id="226" depart="813.60" from="19923100#0" to="19922980#2"/>
    <trip id="229" depart="824.40" from="29110230" to="19922980#2"/>
    <trip id="232" depart="835.20" from="19923100#0" to="-29110230"/>
    <trip id="234" depart="842.40" from="29110230" to="-29110230"/>
    <trip id="236" depart="849.60" from="19922965#0" to="19922980#2"/>
    <trip id="237" depart="853.20" from="19922965#0" to="432864793#2"/>
    <trip id="238" depart="856.80" from="29110230" to="19923064#1"/>
    <trip id="240" depart="864.00" from="19922965#0" to="-29110230"/>
    <trip id="241" depart="867.60" from="19922965#0" to="4039300#1"/>
    <trip id="243" depart="874.80" from="19922965#0" to="4039300#1"/>
    <trip id="244" depart="878.40" from="19923100#0" to="19923064#1"/>
    <trip id="246" depart="885.60" from="19923100#0" to="-29110230"/>
    <trip id="247" depart="889.20" from="19922965#0" to="19923064#1"/>
    <trip id="248" depart="892.80" from="19922965#0" to="19922980#2"/>
    <trip id="249" depart="896.40" from="19923100#0" to="-29110230"/>
    <trip id="250" depart="900.00" from="29110230" to="-29110230"/>
    <trip id="252" depart="907.20" from="-432864793#2" to="19923064#1"/>
    <trip id="256" depart="921.60" from="52985347" to="19923007"/>
    <trip id="261" depart="939.60" from="29110230" to="4039300#1"/>
    <trip id="262" depart="943.20" from="29110230" to="4039300#1"/>
    <trip id="263" depart="946.80" from="548557132#0" to="19922980#2"/>
    <trip id="264" depart="950.40" from="-432864793#2" to="19922980#2"/>
    <trip id="265" depart="954.00" from="-432864793#2" to="19923064#1"/>
    <trip id="266" depart="957.60" from="19923100#0" to="19922980#2"/>
    <trip id="267" depart="961.20" from="29110230" to="4039300#1"/>
    <trip id="271" depart="975.60" from="-432864793#2" to="-29110230"/>
    <trip id="272" depart="979.20" from="19922965#0" to="19923064#1"/>
    <trip id="275" depart="990.00" from="29110230" to="19923064#1"/>
    <trip id="276" depart="993.60" from="-432864793#2" to="4039300#1"/>
    <trip id="278" depart="1000.80" from="-432864793#2" to="432864793#2"/>
    <trip id="279" depart="1004.40" from="52985347" to="19923007"/>
    <trip id="283" depart="1018.80" from="-432864793#2" to="432864793#2"/>
    <trip id="284" depart="1022.40" from="29110230" to="4039300#1"/>
    <trip id="289" depart="1040.40" from="19923100#0" to="4039300#1"/>
    <trip id="292" depart="1051.20" from="548557132#0" to="19922980#2"/>
    <trip id="293" depart="1054.80" from="19923100#0" to="19923064#1"/>
    <trip id="294" depart="1058.40" from="19922965#0" to="-29110230"/>
    <trip id="297" depart="1069.20" from="19922965#0" to="432864793#2"/>
    <trip id="298" depart="1072.80" from="29110230" to="19922980#2"/>
    <trip id="299" depart="1076.40" from="-432864793#2" to="432864793#2"/>
    <trip id="300" depart="1080.00" from="-432864793#2" to="4039300#1"/>
    <trip id="301" depart="1083.60" from="19923100#0" to="4039300#1"/>
    <trip id="302" depart="1087.20" from="29110230" to="19923064#1"/>
    <trip id="303" depart="1090.80" from="19923100#0" to="4039300#1"/>
    <trip id="304" depart="1094.40" from="-432864793#2" to="19922980#2"/>
    <trip id="308" depart="1108.80" from="52985347" to="19923007"/>
    <trip id="309" depart="1112.40" from="29110230" to="19922980#2"/>
    <trip id="312" depart="1123.20" from="19923100#0" to="4039300#1"/>
    <trip id="314" depart="1130.40" from="19923100#0" to="4039300#1"/>
    <trip id="319" depart="1148.40" from="19923100#0" to="19922980#2"/>
    <trip id="321" depart="1155.60" from="29110230" to="-29110230"/>
    <trip id="323" depart="1162.80" from="548557132#0" to="19923064#1"/>
    <trip id="327" depart="1177.20" from="52985347" to="19923007"/>
    <trip id="328" depart="1180.80" from="-432864793#2" to="19923064#1"/>
    <trip id="329" depart="1184.40" from="-432864793#2" to="19922980#2"/>
    <trip id="331" depart="1191.60" from="548557132#0" to="-29110230"/>
    <trip id="335" depart="1206.00" from="19923100#0" to="432864793#2"/>
    <trip id="337" depart="1213.20" from="29110230" to="19923064#1"/>
    <trip id="340" depart="1224.00" from="29110230" to="19922980#2"/>
    <trip id="346" depart="1245.60" from="29110230" to="432864793#2"/>
    <trip id="348" depart="1252.80" from="29110230" to="432864793#2"/>
    <trip id="350" depart="1260.00" from="29110230" to="432864793#2"/>
    <trip id="354" depart="1274.40" from="19922965#0" to="-29110230"/>
    <trip id="355" depart="1278.00" from="29110230" to="19923064#1"/>
    <trip id="357" depart="1285.20" from="19923100#0" to="-29110230"/>
    <trip id="359" depart="1292.40" from="19922965#0" to="19922980#2"/>
    <trip id="360" depart="1296.00" from="-432864793#2" to="432864793#2"/>
    <trip id="362" depart="1303.20" from="548557132#0" to="432864793#2"/>
    <trip id="363" depart="1306.80" from="29110230" to="19922980#2"/>
    <trip id="364" depart="1310.40" from="-432864793#2" to="4039300#1"/>
    <trip id="365" depart="1314.00" from="19923100#0" to="19923064#1"/>
    <trip id="366" depart="1317.60" from="548557132#0" to="19922980#2"/>
    <trip id="367" depart="1321.20" from="29110230" to="19923064#1"/>
    <trip id="368" depart="1324.80" from="19923100#0" to="-29110230"/>
    <trip id="370" depart="1332.00" from="29110230" to="432864793#2"/>
    <trip id="371" depart="1335.60" from="19922965#0" to="19923064#1"/>
    <trip id="372" depart="1339.20" from="19922965#0" to="432864793#2"/>
    <trip id="375" depart="1350.00" from="19922965#0" to="432864793#2"/>
    <trip id="377" depart="1357.20" from="548557132#0" to="19923064#1"/>
    <trip id="382" depart="1375.20" from="19923100#0" to="432864793#2"/>
    <trip id="383" depart="1378.80" from="19923100#0" to="19923064#1"/>
    <trip id="384" depart="1382.40" from="-432864793#2" to="432864793#2"/>
    <trip id="385" depart="1386.00" from="29110230" to="19922980#2"/>
    <trip id="386" depart="1389.60" from="10345998" to="19923016"/>
    <trip id="387" depart="1393.20" from="19923100#0" to="-29110230"/>
    <trip id="388" depart="1396.80" from="548557132#0" to="432864793#2"/>
    <trip id="389" depart="1400.40" from="19923100#0" to="-29110230"/>
    <trip id="393" depart="1414.80" from="548557132#0" to="19922980#2"/>
    <trip id="396" depart="1425.60" from="548557132#0" to="432864793#2"/>
    <trip id="398" depart="1432.80" from="19922965#0" to="432864793#2"/>
    <trip id="399" depart="1436.40" from="19923100#0" to="4039300#1"/>
    <trip id="401" depart="1443.60" from="29110230" to="432864793#2"/>
    <trip id="402" depart="1447.20" from="19923100#0" to="19922980#2"/>
    <trip id="407" depart="1465.20" from="29110230" to="19922980#2"/>
    <trip id="410" depart="1476.00" from="52985347" to="19923007"/>
    <trip id="411" depart="1479.60" from="29110230" to="4039300#1"/>
    <trip id="414" depart="1490.40" from="29110230" to="432864793#2"/>
    <trip id="417" depart="1501.20" from="52985347" to="19923007"/>
    <trip id="418" depart="1504.80" from="29110230" to="19922980#2"/>
    <trip id="419" depart="1508.40" from="19923100#0" to="432864793#2"/>
    <trip id="420" depart="1512.00" from="19922965#0" to="19923064#1"/>
    <trip id="421" depart="1515.60" from="29110230" to="4039300#1"/>
    <trip id="425" depart="1530.00" from="548557132#0" to="-29110230"/>
    <trip id="426" depart="1533.60" from="-432864793#2" to="19923064#1"/>
    <trip id="427" depart="1537.20" from="548557132#0" to="432864793#2"/>
    <trip id="429" depart="1544.40" from="-432864793#2" to="19923064#1"/>
    <trip id="431" depart="1551.60" from="29110230" to="432864793#2"/>
    <trip id="432" depart="1555.20" from="-432864793#2" to="4039300#1"/>
    <trip id="434" depart="1562.40" from="10345998" to="19923016"/>
    <trip id="435" depart="1566.00" from="19923100#0" to="4039300#1"/>
    <trip id="437" depart="1573.20" from="548557132#0" to="19923064#1"/>
    <trip id="439" depart="1580.40" from="10345998" to="19923016"/>
    <trip id="441" depart="1587.60" from="-432864793#2" to="4039300#1"/>
    <trip id="442" depart="1591.20" from="548557132#0" to="19923064#1"/>
    <trip id="443" depart="1594.80" from="10345998" to="19923016"/>
    <trip id="444" depart="1598.40" from="19922965#0" to="19923064#1"/>
    <trip id="448" depart="1612.80" from="19923100#0" to="19922980#2"/>
    <trip id="449" depart="1616.40" from="29110230" to="19923064#1"/>
    <trip id="451" depart="1623.60" from="548557132#0" to="19923064#1"/>
    <trip id="452" depart="1627.20" from="10345998" to="19923016"/>
    <trip id="453" depart="1630.80" from="29110230" to="4039300#1"/>
    <trip id="454" depart="1634.40" from="-432864793#2" to="19923064#1"/>
    <trip id="455" depart="1638.00" from="19923100#0" to="432864793#2"/>
    <trip id="456" depart="1641.60" from="19922965#0" to="4039300#1"/>
    <trip id="458" depart="1648.80" from="29110230" to="19923064#1"/>
    <trip id="459" depart="1652.40" from="29110230" to="4039300#1"/>
    <trip id="460" depart="1656.00" from="29110230" to="4039300#1"/>
    <trip id="461" depart="1659.60" from="29110230" to="432864793#2"/>
    <trip id="463" depart="1666.80" from="19923100#0" to="19923064#1"/>
    <trip id="465" depart="1674.00" from="19922965#0" to="4039300#1"/>
    <trip id="467" depart="1681.20" from="19923100#0" to="432864793#2"/>
    <trip id="468" depart="1684.80" from="19923100#0" to="432864793#2"/>
    <trip id="472" depart="1699.20" from="19922965#0" to="-29110230"/>
    <trip id="473" depart="1702.80" from="548557132#0" to="-29110230"/>
    <trip id="474" depart="1706.40" from="548557132#0" to="432864793#2"/>
    <trip id="476" depart="1713.60" from="548557132#0" to="4039300#1"/>
    <trip id="477" depart="1717.20" from="19922965#0" to="4039300#1"/>
    <trip id="479" depart="1724.40" from="19923100#0" to="19923064#1"/>
    <trip id="480" depart="1728.00" from="29110230" to="19923064#1"/>
    <trip id="482" depart="1735.20" from="-432864793#2" to="19922980#2"/>
    <trip id="483" depart="1738.80" from="-432864793#2" to="432864793#2"/>
    <trip id="484" depart="1742.40" from="19923100#0" to="432864793#2"/>
    <trip id="488" depart="1756.80" from="-432864793#2" to="432864793#2"/>
    <trip id="490" depart="1764.00" from="-432864793#2" to="432864793#2"/>
    <trip id="492" depart="1771.20" from="29110230" to="4039300#1"/>
    <trip id="495" depart="1782.00" from="19922965#0" to="-29110230"/>
    <trip id="497" depart="1789.20" from="548557132#0" to="-29110230"/>
    <trip id="499" depart="1796.40" from="548557132#0" to="4039300#1"/>
    <trip id="500" depart="1800.00" from="-432864793#2" to="19923064#1"/>
    <trip id="501" depart="1803.60" from="19923100#0" to="432864793#2"/>
    <trip id="505" depart="1818.00" from="29110230" to="19923064#1"/>
    <trip id="506" depart="1821.60" from="29110230" to="-29110230"/>
    <trip id="509" depart="1832.40" from="-432864793#2" to="4039300#1"/>
    <trip id="513" depart="1846.80" from="-432864793#2" to="432864793#2"/>
    <trip id="516" depart="1857.60" from="29110230" to="-29110230"/>
    <trip id="517" depart="1861.20" from="-432864793#2" to="4039300#1"/>
    <trip id="524" depart="1886.40" from="548557132#0" to="-29110230"/>
    <trip id="527" depart="1897.20" from="548557132#0" to="-29110230"/>
    <trip id="530" depart="1908.00" from="548557132#0" to="-29110230"/>
    <trip id="531" depart="1911.60" from="-432864793#2" to="19923064#1"/>
    <trip id="532" depart="1915.20" from="-432864793#2" to="19922980#2"/>
    <trip id="534" depart="1922.40" from="19922965#0" to="432864793#2"/>
    <trip id="536" depart="1929.60" from="29110230" to="-29110230"/>
    <trip id="537" depart="1933.20" from="29110230" to="4039300#1"/>
    <trip id="538" depart="1936.80" from="29110230" to="4039300#1"/>
    <trip id="540" depart="1944.00" from="19923100#0" to="19922980#2"/>
    <trip id="542" depart="1951.20" from="19922965#0" to="-29110230"/>
    <trip id="543" depart="1954.80" from="19922965#0" to="19923064#1"/>
    <trip id="544" depart="1958.40" from="19922965#0" to="19922980#2"/>
    <trip id="545" depart="1962.00" from="548557132#0" to="-29110230"/>
    <trip id="547" depart="1969.20" from="-432864793#2" to="4039300#1"/>
    <trip id="550" depart="1980.00" from="19922965#0" to="-29110230"/>
    <trip id="551" depart="1983.60" from="19922965#0" to="19923064#1"/>
    <trip id="555" depart="1998.00" from="29110230" to="19922980#2"/>
    <trip id="556" depart="2001.60" from="29110230" to="19922980#2"/>
    <trip id="557" depart="2005.20" from="-432864793#2" to="4039300#1"/>
    <trip id="558" depart="2008.80" from="19922965#0" to="4039300#1"/>
    <trip id="559" depart="2012.40" from="29110230" to="4039300#1"/>
    <trip id="562" depart="2023.20" from="29110230" to="-29110230"/>
    <trip id="563" depart="2026.80" from="548557132#0" to="4039300#1"/>
    <trip id="566" depart="2037.60" from="19922965#0" to="-29110230"/>
    <trip id="568" depart="2044.80" from="19922965#0" to="-29110230"/>
    <trip id="569" depart="2048.40" from="29110230" to="-29110230"/>
    <trip id="572" depart="2059.20" from="19922965#0" to="4039300#1"/>
    <trip id="574" depart="2066.40" from="-432864793#2" to="-29110230"/>
    <trip id="576" depart="2073.60" from="29110230" to="19922980#2"/>
    <trip id="578" depart="2080.80" from="19923100#0" to="19922980#2"/>
    <trip id="580" depart="2088.00" from="19923100#0" to="19922980#2"/>
    <trip id="582" depart="2095.20" from="29110230" to="-29110230"/>
    <trip id="583" depart="2098.80" from="19922965#0" to="19923064#1"/>
    <trip id="587" depart="2113.20" from="-432864793#2" to="4039300#1"/>
    <trip id="591" depart="2127.60" from="-432864793#2" to="432864793#2"/>
    <trip id="592" depart="2131.20" from="-432864793#2" to="-29110230"/>
    <trip id="593" depart="2134.80" from="548557132#0" to="432864793#2"/>
    <trip id="594" depart="2138.40" from="29110230" to="19923064#1"/>
    <trip id="596" depart="2145.60" from="-432864793#2" to="-29110230"/>
    <trip id="597" depart="2149.20" from="19922965#0" to="4039300#1"/>
    <trip id="598" depart="2152.80" from="29110230" to="4039300#1"/>
    <trip id="599" depart="2156.40" from="548557132#0" to="-29110230"/>
    <trip id="604" depart="2174.40" from="10345998" to="19923016"/>
    <trip id="610" depart="2196.00" from="29110230" to="4039300#1"/>
    <trip id="611" depart="2199.60" from="29110230" to="19922980#2"/>
    <trip id="614" depart="2210.40" from="19923100#0" to="432864793#2"/>
    <trip id="615" depart="2214.00" from="19923100#0" to="19923064#1"/>
    <trip id="616" depart="2217.60" from="29110230" to="432864793#2"/>
    <trip id="617" depart="2221.20" from="29110230" to="19922980#2"/>
    <trip id="619" depart="2228.40" from="19922965#0" to="19922980#2"/>
    <trip id="622" depart="2239.20" from="-432864793#2" to="4039300#1"/>
    <trip id="623" depart="2242.80" from="-432864793#2" to="432864793#2"/>
    <trip id="626" depart="2253.60" from="19923100#0" to="4039300#1"/>
    <trip id="631" depart="2271.60" from="-432864793#2" to="432864793#2"/>
    <trip id="632" depart="2275.20" from="19922965#0" to="4039300#1"/>
    <trip id="633" depart="2278.80" from="19923100#0" to="19922980#2"/>
    <trip id="634" depart="2282.40" from="10345998" to="19923016"/>
    <trip id="638" depart="2296.80" from="19922965#0" to="19923064#1"/>
    <trip id="640" depart="2304.00" from="-432864793#2" to="-29110230"/>
    <trip id="641" depart="2307.60" from="29110230" to="19922980#2"/>
    <trip id="643" depart="2314.80" from="548557132#0" to="432864793#2"/>
    <trip id="644" depart="2318.40" from="19922965#0" to="19923064#1"/>
    <trip id="646" depart="2325.60" from="548557132#0" to="19923064#1"/>
    <trip id="647" depart="2329.20" from="19922965#0" to="19923064#1"/>
    <trip id="649" depart="2336.40" from="19922965#0" to="4039300#1"/>
    <trip id="658" depart="2368.80" from="-432864793#2" to="4039300#1"/>
    <trip id="659" depart="2372.40" from="-432864793#2" to="4039300#1"/>
    <trip id="663" depart="2386.80" from="19922965#0" to="19922980#2"/>
    <trip id="667" depart="2401.20" from="29110230" to="19922980#2"/>
    <trip id="668" depart="2404.80" from="19923100#0" to="19922980#2"/>
    <trip id="672" depart="2419.20" from="52985347" to="19923007"/>
    <trip id="673" depart="2422.80" from="548557132#0" to="432864793#2"/>
    <trip id="674" depart="2426.40" from="19923100#0" to="19922980#2"/>
    <trip id="676" depart="2433.60" from="548557132#0" to="4039300#1"/>
    <trip id="680" depart="2448.00" from="-432864793#2" to="4039300#1"/>
    <trip id="683" depart="2458.80" from="548557132#0" to="19922980#2"/>
    <trip id="684" depart="2462.40" from="19923100#0" to="432864793#2"/>
    <trip id="685" depart="2466.00" from="10345998" to="19923016"/>
    <trip id="686" depart="2469.60" from="19922965#0" to="-29110230"/>
    <trip id="689" depart="2480.40" from="19922965#0" to="-29110230"/>
    <trip id="690" depart="2484.00" from="548557132#0" to="4039300#1"/>
    <trip id="691" depart="2487.60" from="29110230" to="4039300#1"/>
    <trip id="694" depart="2498.40" from="-432864793#2" to="19923064#1"/>
    <trip id="695" depart="2502.00" from="19923100#0" to="-29110230"/>
    <trip id="696" depart="2505.60" from="-432864793#2" to="19922980#2"/>
    <trip id="700" depart="2520.00" from="19922965#0" to="-29110230"/>
    <trip id="701" depart="2523.60" from="19922965#0" to="4039300#1"/>
    <trip id="702" depart="2527.20" from="19923100#0" to="-29110230"/>
    <trip id="703" depart="2530.80" from="548557132#0" to="19923064#1"/>
    <trip id="706" depart="2541.60" from="19923100#0" to="19923064#1"/>
    <trip id="708" depart="2548.80" from="29110230" to="-29110230"/>
    <trip id="709" depart="2552.40" from="548557132#0" to="-29110230"/>
    <trip id="713" depart="2566.80" from="29110230" to="432864793#2"/>
    <trip id="715" depart="2574.00" from="52985347" to="19923007"/>
    <trip id="718" depart="2584.80" from="19922965#0" to="-29110230"/>
    <trip id="719" depart="2588.40" from="19923100#0" to="4039300#1"/>
    <trip id="721" depart="2595.60" from="19923100#0" to="19923064#1"/>
    <trip id="722" depart="2599.20" from="29110230" to="4039300#1"/>
    <trip id="723" depart="2602.80" from="-432864793#2" to="4039300#1"/>
    <trip id="725" depart="2610.00" from="-432864793#2" to="19922980#2"/>
    <trip id="726" depart="2613.60" from="-432864793#2" to="432864793#2"/>
    <trip id="727" depart="2617.20" from="19923100#0" to="432864793#2"/>
    <trip id="728" depart="2620.80" from="19923100#0" to="19922980#2"/>
    <trip id="730" depart="2628.00" from="19922965#0" to="4039300#1"/>
    <trip id="733" depart="2638.80" from="548557132#0" to="4039300#1"/>
    <trip id="736" depart="2649.60" from="19923100#0" to="432864793#2"/>
    <trip id="737" depart="2653.20" from="19923100#0" to="4039300#1"/>
    <trip id="739" depart="2660.40" from="29110230" to="4039300#1"/>
    <trip id="741" depart="2667.60" from="-432864793#2" to="19923064#1"/>
    <trip id="742" depart="2671.20" from="19922965#0" to="19923064#1"/>
    <trip id="743" depart="2674.80" from="19922965#0" to="19923064#1"/>
    <trip id="744" depart="2678.40" from="19922965#0" to="-29110230"/>
    <trip id="746" depart="2685.60" from="548557132#0" to="19922980#2"/>
    <trip id="747" depart="2689.20" from="548557132#0" to="432864793#2"/>
    <trip id="748" depart="2692.80" from="-432864793#2" to="19923064#1"/>
    <trip id="749" depart="2696.40" from="19922965#0" to="4039300#1"/>
    <trip id="750" depart="2700.00" from="29110230" to="432864793#2"/>
    <trip id="751" depart="2703.60" from="-432864793#2" to="19923064#1"/>
    <trip id="753" depart="2710.80" from="-432864793#2" to="4039300#1"/>
    <trip id="755" depart="2718.00" from="19923100#0" to="19923064#1"/>
    <trip id="756" depart="2721.60" from="29110230" to="432864793#2"/>
    <trip id="757" depart="2725.20" from="19922965#0" to="4039300#1"/>
    <trip id="759" depart="2732.40" from="19922965#0" to="19923064#1"/>