<?xml version="1.0" encoding="UTF-8"?>

<!-- generated on 2024-09-03 01:36:59 by Eclipse SUMO netconvert Version 1.20.0
<configuration xmlns:xsi="http://www.w3.org/2001/XMLSchema-instance" xsi:noNamespaceSchemaLocation="http://sumo.dlr.de/xsd/netconvertConfiguration.xsd">

    <input>
        <osm-files value="train_files/roundabout/easy/osm_files/map(68).osm"/>
    </input>

    <output>
        <output-file value="train_files/roundabout/easy/outputs/map(68)_dict/map(68)/map(68).net.xml"/>
    </output>

    <projection>
        <proj.utm value="true"/>
    </projection>

    <building_defaults>
        <default.junctions.keep-clear value="false"/>
    </building_defaults>

</configuration>
-->

<net version="1.20" junctionCornerDetail="5" limitTurnSpeed="5.50" xmlns:xsi="http://www.w3.org/2001/XMLSchema-instance" xsi:noNamespaceSchemaLocation="http://sumo.dlr.de/xsd/net_file.xsd">

    <location netOffset="-398672.92,-5405112.44" convBoundary="0.00,0.00,3670.61,692.19" origBoundary="1.620295,48.790860,1.670212,48.797560" projParameter="+proj=utm +zone=31 +ellps=WGS84 +datum=WGS84 +units=m +no_defs"/>

    <type id="highway.cycleway" priority="1" numLanes="1" speed="5.56" allow="bicycle" oneway="0" width="2.00"/>
    <type id="highway.primary" priority="12" numLanes="2" speed="27.78" disallow="tram rail_urban rail rail_electric rail_fast ship container cable_car subway aircraft wheelchair scooter drone" oneway="0"/>
    <type id="highway.secondary" priority="11" numLanes="1" speed="27.78" disallow="tram rail_urban rail rail_electric rail_fast ship container cable_car subway aircraft wheelchair scooter drone" oneway="0"/>
    <type id="highway.service" priority="1" numLanes="1" speed="5.56" allow="pedestrian delivery bicycle" oneway="0"/>
    <type id="highway.tertiary" priority="10" numLanes="1" speed="22.22" disallow="tram rail_urban rail rail_electric rail_fast ship container cable_car subway aircraft wheelchair scooter drone" oneway="0"/>
    <type id="highway.trunk_link" priority="8" numLanes="1" speed="22.22" disallow="pedestrian bicycle tram rail_urban rail rail_electric rail_fast ship container cable_car subway aircraft wheelchair scooter drone" oneway="0"/>
    <type id="highway.unclassified" priority="4" numLanes="1" speed="13.89" disallow="tram rail_urban rail rail_electric rail_fast ship container cable_car subway aircraft wheelchair scooter drone" oneway="0"/>

    <edge id=":10313314347_0" function="internal">
        <lane id=":10313314347_0_0" index="0" disallow="tram rail_urban rail rail_electric rail_fast ship container cable_car subway aircraft wheelchair scooter drone" speed="12.61" length="12.01" shape="690.67,202.06 687.13,202.83 684.70,203.89 682.72,205.48 680.56,207.84"/>
    </edge>
    <edge id=":10313314347_1" function="internal">
        <lane id=":10313314347_1_0" index="0" disallow="tram rail_urban rail rail_electric rail_fast ship container cable_car subway aircraft wheelchair scooter drone" speed="13.89" length="11.96" shape="690.67,202.06 687.12,202.56 684.64,202.61 682.19,202.23 678.68,201.41"/>
        <lane id=":10313314347_1_1" index="1" disallow="tram rail_urban rail rail_electric rail_fast ship container cable_car subway aircraft wheelchair scooter drone" speed="13.89" length="11.96" shape="690.15,198.90 686.71,199.36 684.32,199.35 681.94,198.91 678.54,198.09"/>
    </edge>
    <edge id=":10313314350_0" function="internal">
        <lane id=":10313314350_0_0" index="0" disallow="tram rail_urban rail rail_electric rail_fast ship container cable_car subway aircraft wheelchair scooter drone" speed="12.36" length="11.98" shape="664.50,202.96 664.08,199.77 663.44,197.30 662.11,195.03 659.64,192.44"/>
    </edge>
    <edge id=":10313314350_1" function="internal">
        <lane id=":10313314350_1_0" index="0" disallow="tram rail_urban rail rail_electric rail_fast ship container cable_car subway aircraft wheelchair scooter drone" speed="13.89" length="11.92" shape="669.84,198.65 666.53,197.31 664.31,196.22 662.31,194.80 659.64,192.44"/>
        <lane id=":10313314350_1_1" index="1" disallow="tram rail_urban rail rail_electric rail_fast ship container cable_car subway aircraft wheelchair scooter drone" speed="13.89" length="11.92" shape="671.84,196.00 668.59,194.72 666.40,193.70 664.42,192.36 661.80,190.08"/>
    </edge>
    <edge id=":11516597324_0" function="internal">
        <lane id=":11516597324_0_0" index="0" allow="bicycle" speed="15.28" length="3.51" width="2.00" shape="655.43,94.26 656.08,95.04 656.72,95.43 657.33,95.82 657.95,96.63"/>
    </edge>
    <edge id=":11516597324_1" function="internal">
        <lane id=":11516597324_1_0" index="0" disallow="tram rail_urban rail rail_electric rail_fast ship container cable_car subway aircraft wheelchair scooter drone" speed="25.00" length="2.51" shape="654.91,94.57 656.20,96.72"/>
    </edge>
    <edge id=":1343797754_0" function="internal">
        <lane id=":1343797754_0_0" index="0" allow="bicycle" speed="4.19" length="4.30" width="2.00" shape="657.09,118.82 656.67,117.63 656.03,117.07 655.15,117.14 654.04,117.84"/>
    </edge>
    <edge id=":1343797754_1" function="internal">
        <lane id=":1343797754_1_0" index="0" disallow="tram rail_urban rail rail_electric rail_fast ship container cable_car subway aircraft wheelchair scooter drone" speed="25.00" length="8.10" shape="657.68,118.70 657.18,116.36 656.74,114.77 656.15,113.23 655.21,111.02"/>
    </edge>
    <edge id=":1343797754_2" function="internal">
        <lane id=":1343797754_2_0" index="0" allow="bicycle" speed="6.53" length="7.04" width="2.00" shape="658.27,118.58 657.89,116.07 657.90,114.12 658.29,112.74 659.06,111.94"/>
    </edge>
    <edge id=":1343797754_3" function="internal">
        <lane id=":1343797754_3_0" index="0" allow="bicycle" speed="5.56" length="7.29" width="2.00" shape="660.02,113.70 658.13,114.75 656.88,115.55 655.71,116.46 654.04,117.84"/>
    </edge>
    <edge id=":1343797754_4" function="internal">
        <lane id=":1343797754_4_0" index="0" allow="bicycle" speed="5.44" length="6.85" width="2.00" shape="660.02,113.70 658.37,114.26 656.92,114.04 655.69,113.04 654.66,111.26"/>
    </edge>
    <edge id=":1343797754_5" function="internal">
        <lane id=":1343797754_5_0" index="0" allow="bicycle" speed="2.89" length="2.92" width="2.00" shape="660.02,113.70 659.12,113.61 658.66,113.29 658.64,112.73 659.06,111.94"/>
    </edge>
    <edge id=":1343797754_6" function="internal">
        <lane id=":1343797754_6_0" index="0" allow="bicycle" speed="5.83" length="5.80" width="2.00" shape="652.77,116.30 654.00,115.06 654.73,113.80 654.95,112.54 654.66,111.26"/>
    </edge>
    <edge id=":1343797754_7" function="internal">
        <lane id=":1343797754_7_0" index="0" allow="bicycle" speed="5.56" length="7.68" width="2.00" shape="652.77,116.30 654.52,114.85 655.76,113.89 657.07,113.05 659.06,111.94"/>
    </edge>
    <edge id=":1343797754_8" function="internal">
        <lane id=":1343797754_8_0" index="0" allow="bicycle" speed="2.89" length="2.92" width="2.00" shape="652.77,116.30 653.66,116.21 654.17,116.43 654.30,116.98 654.04,117.84"/>
    </edge>
    <edge id=":1343797767_0" function="internal">
        <lane id=":1343797767_0_0" index="0" allow="bicycle" speed="5.29" length="5.02" width="2.00" shape="679.98,214.71 678.41,214.57 677.16,214.78 676.23,215.33 675.62,216.23"/>
    </edge>
    <edge id=":1343797767_1" function="internal">
        <lane id=":1343797767_1_0" index="0" allow="bicycle" speed="5.56" length="7.16" width="2.00" shape="679.98,214.71 677.91,214.25 676.53,213.78 675.18,213.23 673.18,212.51"/>
    </edge>
    <edge id=":1343797767_2" function="internal">
        <lane id=":1343797767_2_0" index="0" allow="bicycle" speed="2.90" length="2.96" width="2.00" shape="679.98,214.71 679.43,213.98 679.36,213.42 679.77,213.03 680.65,212.80"/>
    </edge>
    <edge id=":1343797767_3" function="internal">
        <lane id=":1343797767_3_0" index="0" allow="bicycle" speed="4.17" length="4.36" width="2.00" shape="679.64,209.79 678.90,210.89 678.83,211.76 679.41,212.40 680.65,212.80"/>
    </edge>
    <edge id=":1343797767_4" function="internal">
        <lane id=":1343797767_4_0" index="0" disallow="tram rail_urban rail rail_electric rail_fast ship container cable_car subway aircraft wheelchair scooter drone" speed="25.00" length="7.85" shape="679.19,209.40 677.67,211.16 676.73,212.45 675.98,213.87 675.07,216.00"/>
    </edge>
    <edge id=":1343797767_5" function="internal">
        <lane id=":1343797767_5_0" index="0" allow="bicycle" speed="6.80" length="6.85" width="2.00" shape="678.74,209.00 677.03,210.77 675.54,211.95 674.25,212.53 673.18,212.51"/>
    </edge>
    <edge id=":1343797767_6" function="internal">
        <lane id=":1343797767_6_0" index="0" allow="bicycle" speed="5.56" length="7.22" width="2.00" shape="673.79,210.61 675.81,211.33 677.18,211.88 678.57,212.34 680.65,212.80"/>
    </edge>
    <edge id=":1343797767_7" function="internal">
        <lane id=":1343797767_7_0" index="0" allow="bicycle" speed="5.46" length="6.85" width="2.00" shape="673.79,210.61 675.28,211.40 676.09,212.61 676.20,214.22 675.62,216.23"/>
    </edge>
    <edge id=":1343797767_8" function="internal">
        <lane id=":1343797767_8_0" index="0" allow="bicycle" speed="2.89" length="2.92" width="2.00" shape="673.79,210.61 674.35,211.32 674.43,211.87 674.04,212.27 673.18,212.51"/>
    </edge>
    <edge id=":1343797797_0" function="internal">
        <lane id=":1343797797_0_0" index="0" allow="bicycle" speed="5.56" length="7.98" width="2.00" shape="667.87,210.80 665.62,210.07 664.09,209.51 662.60,208.87 660.45,207.88"/>
    </edge>
    <edge id=":1343797797_1" function="internal">
        <lane id=":1343797797_1_0" index="0" allow="bicycle" speed="6.98" length="8.14" width="2.00" shape="667.87,210.80 666.22,209.94 665.03,208.56 664.30,206.67 664.03,204.26"/>
    </edge>
    <edge id=":1343797797_2" function="internal">
        <lane id=":1343797797_2_0" index="0" allow="bicycle" speed="2.89" length="2.92" width="2.00" shape="667.87,210.80 667.31,210.10 667.22,209.55 667.61,209.15 668.48,208.90"/>
    </edge>
    <edge id=":1343797797_3" function="internal">
        <lane id=":1343797797_3_0" index="0" allow="bicycle" speed="4.03" length="4.32" width="2.00" shape="661.28,206.07 662.50,206.43 663.37,206.25 663.87,205.53 664.03,204.26"/>
    </edge>
    <edge id=":1343797797_4" function="internal">
        <lane id=":1343797797_4_0" index="0" allow="bicycle" speed="5.56" length="7.75" width="2.00" shape="661.28,206.07 663.37,207.02 664.82,207.64 666.30,208.18 668.48,208.90"/>
    </edge>
    <edge id=":1343797797_5" function="internal">
        <lane id=":1343797797_5_0" index="0" allow="bicycle" speed="2.89" length="2.92" width="2.00" shape="661.28,206.07 661.75,206.83 661.77,207.39 661.34,207.74 660.45,207.88"/>
    </edge>
    <edge id=":1343797797_6" function="internal">
        <lane id=":1343797797_6_0" index="0" allow="bicycle" speed="6.34" length="6.23" width="2.00" shape="663.83,212.62 663.70,211.17 663.10,209.90 662.01,208.80 660.45,207.88"/>
    </edge>
    <edge id=":1343797797_7" function="internal">
        <lane id=":1343797797_7_0" index="0" disallow="tram rail_urban rail rail_electric rail_fast ship container cable_car subway aircraft wheelchair scooter drone" speed="25.00" length="8.43" shape="664.42,212.67 664.61,210.17 664.68,208.46 664.68,206.75 664.63,204.24"/>
    </edge>
    <edge id=":1343797797_8" function="internal">
        <lane id=":1343797797_8_0" index="0" allow="bicycle" speed="5.12" length="6.13" width="2.00" shape="665.02,212.72 665.38,210.67 666.07,209.36 667.11,208.77 668.48,208.90"/>
    </edge>
    <edge id=":1343797798_0" function="internal">
        <lane id=":1343797798_0_0" index="0" allow="bicycle" speed="5.11" length="5.17" width="2.00" shape="634.19,187.46 633.44,186.09 632.53,185.23 631.46,184.87 630.24,185.02"/>
    </edge>
    <edge id=":1343797798_1" function="internal">
        <lane id=":1343797798_1_0" index="0" allow="bicycle" speed="5.56" length="7.32" width="2.00" shape="634.19,187.46 631.36,180.71"/>
    </edge>
    <edge id=":1343797798_2" function="internal">
        <lane id=":1343797798_2_0" index="0" allow="bicycle" speed="2.89" length="2.92" width="2.00" shape="634.19,187.46 634.36,186.57 634.73,186.15 635.29,186.19 636.04,186.68"/>
    </edge>
    <edge id=":1343797798_3" function="internal">
        <lane id=":1343797798_3_0" index="0" allow="bicycle" speed="4.28" length="4.27" width="2.00" shape="637.86,183.89 636.63,184.08 635.92,184.61 635.72,185.48 636.04,186.68"/>
    </edge>
    <edge id=":1343797798_4" function="internal">
        <lane id=":1343797798_4_0" index="0" disallow="tram rail_urban rail rail_electric rail_fast ship container cable_car subway aircraft wheelchair scooter drone" speed="25.00" length="7.92" shape="637.85,183.29 635.50,183.33 633.89,183.46 632.31,183.79 630.06,184.45"/>
    </edge>
    <edge id=":1343797798_5" function="internal">
        <lane id=":1343797798_5_0" index="0" allow="bicycle" speed="6.81" length="7.09" width="2.00" shape="637.84,182.69 635.33,182.60 633.42,182.24 632.09,181.61 631.36,180.71"/>
    </edge>
    <edge id=":1343797798_6" function="internal">
        <lane id=":1343797798_6_0" index="0" allow="bicycle" speed="5.56" length="7.32" width="2.00" shape="633.21,179.93 636.04,186.68"/>
    </edge>
    <edge id=":1343797798_7" function="internal">
        <lane id=":1343797798_7_0" index="0" allow="bicycle" speed="5.44" length="6.85" width="2.00" shape="633.21,179.93 633.60,181.63 633.24,183.05 632.12,184.18 630.24,185.02"/>
    </edge>
    <edge id=":1343797798_8" function="internal">
        <lane id=":1343797798_8_0" index="0" allow="bicycle" speed="2.89" length="2.92" width="2.00" shape="633.21,179.93 633.04,180.82 632.67,181.24 632.11,181.21 631.36,180.71"/>
    </edge>
    <edge id=":1771545461_0" function="internal">
        <lane id=":1771545461_0_0" index="0" allow="pedestrian delivery bicycle" speed="8.24" length="6.03" shape="601.25,96.85 600.64,95.15 600.13,93.96 599.32,93.06 597.82,92.21"/>
    </edge>
    <edge id=":1771545461_1" function="internal">
        <lane id=":1771545461_1_0" index="0" allow="pedestrian delivery bicycle" speed="6.87" length="3.21" shape="601.25,96.85 600.63,94.15 600.70,93.72"/>
    </edge>
    <edge id=":1771545461_2" function="internal">
        <lane id=":1771545461_2_0" index="0" allow="pedestrian delivery bicycle" speed="3.65" length="1.44" shape="601.25,96.85 601.56,95.44"/>
    </edge>
    <edge id=":1771545461_9" function="internal">
        <lane id=":1771545461_9_0" index="0" allow="pedestrian delivery bicycle" speed="6.87" length="6.91" shape="600.70,93.72 601.02,91.89 602.42,90.08 604.83,88.71"/>
    </edge>
    <edge id=":1771545461_10" function="internal">
        <lane id=":1771545461_10_0" index="0" allow="pedestrian delivery bicycle" speed="3.65" length="3.23" shape="601.56,95.44 602.17,94.78 603.06,94.87 604.23,95.70"/>
    </edge>
    <edge id=":1771545461_3" function="internal">
        <lane id=":1771545461_3_0" index="0" allow="pedestrian delivery bicycle" speed="5.05" length="4.99" shape="606.00,91.69 604.81,92.37 604.12,93.26 603.93,94.37 604.23,95.70"/>
    </edge>
    <edge id=":1771545461_4" function="internal">
        <lane id=":1771545461_4_0" index="0" allow="pedestrian delivery bicycle" speed="9.55" length="8.41" shape="606.00,91.69 603.62,92.46 601.47,92.80 599.53,92.72 597.82,92.21"/>
    </edge>
    <edge id=":1771545461_5" function="internal">
        <lane id=":1771545461_5_0" index="0" allow="pedestrian delivery bicycle" speed="3.65" length="4.67" shape="606.00,91.69 604.59,91.39 603.92,90.79 604.00,89.90 604.83,88.71"/>
    </edge>
    <edge id=":1771545461_6" function="internal">
        <lane id=":1771545461_6_0" index="0" allow="pedestrian delivery bicycle" speed="8.06" length="5.87" shape="599.12,89.29 600.22,89.59 601.54,89.59 603.07,89.30 604.83,88.71"/>
    </edge>
    <edge id=":1771545461_7" function="internal">
        <lane id=":1771545461_7_0" index="0" allow="pedestrian delivery bicycle" speed="9.73" length="8.57" shape="599.12,89.29 601.29,90.46 602.53,91.69 603.34,93.32 604.23,95.70"/>
    </edge>
    <edge id=":1771545461_8" function="internal">
        <lane id=":1771545461_8_0" index="0" allow="pedestrian delivery bicycle" speed="3.65" length="1.44" shape="599.12,89.29 599.89,90.51"/>
    </edge>
    <edge id=":1771545461_11" function="internal">
        <lane id=":1771545461_11_0" index="0" allow="pedestrian delivery bicycle" speed="3.65" length="3.23" shape="599.89,90.51 599.93,91.41 599.24,91.97 597.82,92.21"/>
    </edge>
    <edge id=":1771545480_0" function="internal">
        <lane id=":1771545480_0_0" index="0" allow="pedestrian delivery bicycle" speed="5.26" length="5.82" shape="553.81,81.23 554.50,82.46 555.53,83.11 556.92,83.18 558.65,82.68"/>
    </edge>
    <edge id=":1771545480_1" function="internal">
        <lane id=":1771545480_1_0" index="0" allow="pedestrian delivery bicycle" speed="12.13" length="7.23" shape="553.81,81.23 554.56,83.21 555.31,84.47 556.36,85.54 557.99,86.92"/>
    </edge>
    <edge id=":1771545480_2" function="internal">
        <lane id=":1771545480_2_0" index="0" allow="pedestrian delivery bicycle" speed="10.91" length="7.32" shape="553.05,87.08 554.27,85.32 555.33,84.27 556.66,83.52 558.65,82.68"/>
    </edge>
    <edge id=":1771545480_3" function="internal">
        <lane id=":1771545480_3_0" index="0" allow="pedestrian delivery bicycle" speed="5.14" length="1.85" shape="553.05,87.08 554.03,86.01 554.42,85.89"/>
    </edge>
    <edge id=":1771545480_4" function="internal">
        <lane id=":1771545480_4_0" index="0" allow="pedestrian delivery bicycle" speed="5.14" length="3.94" shape="554.42,85.89 555.18,85.63 556.50,85.94 557.99,86.92"/>
    </edge>
    <edge id=":1771545495_0" function="internal">
        <lane id=":1771545495_0_0" index="0" allow="pedestrian delivery bicycle" speed="6.79" length="4.13" shape="595.21,91.05 594.22,90.71 593.21,90.59 592.21,90.68 591.20,90.99"/>
    </edge>
    <edge id=":1771545495_1" function="internal">
        <lane id=":1771545495_1_0" index="0" allow="pedestrian delivery bicycle" speed="3.65" length="1.44" shape="595.21,91.05 594.45,89.83"/>
    </edge>
    <edge id=":1771545495_4" function="internal">
        <lane id=":1771545495_4_0" index="0" allow="pedestrian delivery bicycle" speed="3.65" length="3.23" shape="594.45,89.83 594.41,88.94 595.10,88.37 596.52,88.13"/>
    </edge>
    <edge id=":1771545495_2" function="internal">
        <lane id=":1771545495_2_0" index="0" allow="pedestrian delivery bicycle" speed="7.13" length="4.30" shape="593.63,85.20 594.14,86.35 594.65,87.07 595.38,87.59 596.52,88.13"/>
    </edge>
    <edge id=":1771545495_3" function="internal">
        <lane id=":1771545495_3_0" index="0" allow="pedestrian delivery bicycle" speed="5.88" length="3.88" shape="593.63,85.20 594.09,87.11 593.84,88.71 593.67,88.94"/>
    </edge>
    <edge id=":1771545495_5" function="internal">
        <lane id=":1771545495_5_0" index="0" allow="pedestrian delivery bicycle" speed="5.88" length="3.27" shape="593.67,88.94 592.88,90.00 591.20,90.99"/>
    </edge>
    <edge id=":1771545530_0" function="internal">
        <lane id=":1771545530_0_0" index="0" disallow="tram rail_urban rail rail_electric rail_fast ship container cable_car subway aircraft wheelchair scooter drone" speed="9.71" length="7.16" shape="728.07,166.64 728.03,168.70 728.41,170.11 729.22,171.39 730.47,173.11"/>
    </edge>
    <edge id=":1771545530_1" function="internal">
        <lane id=":1771545530_1_0" index="0" disallow="tram rail_urban rail rail_electric rail_fast ship container cable_car subway aircraft wheelchair scooter drone" speed="13.89" length="7.13" shape="728.07,166.64 727.82,168.79 727.49,170.24 727.01,171.65 726.27,173.70"/>
        <lane id=":1771545530_1_1" index="1" disallow="tram rail_urban rail rail_electric rail_fast ship container cable_car subway aircraft wheelchair scooter drone" speed="13.89" length="7.13" shape="724.88,166.36 724.63,168.39 724.31,169.76 723.82,171.09 723.11,173.03"/>
    </edge>
    <edge id=":1771545533_0" function="internal">
        <lane id=":1771545533_0_0" index="0" allow="pedestrian delivery bicycle" speed="13.89" length="6.20" shape="568.13,100.38 562.40,102.74"/>
    </edge>
    <edge id=":1771545533_1" function="internal">
        <lane id=":1771545533_1_0" index="0" allow="pedestrian delivery bicycle" speed="5.18" length="1.42" shape="564.14,98.57 564.42,99.96"/>
    </edge>
    <edge id=":1771545533_2" function="internal">
        <lane id=":1771545533_2_0" index="0" allow="pedestrian delivery bicycle" speed="5.18" length="3.66" shape="564.42,99.96 564.22,101.12 563.55,102.05 562.40,102.74"/>
    </edge>
    <edge id=":1771545570_0" function="internal">
        <lane id=":1771545570_0_0" index="0" allow="pedestrian delivery bicycle" speed="3.65" length="4.67" shape="625.89,107.40 625.60,108.81 625.01,109.48 624.11,109.41 622.92,108.59"/>
    </edge>
    <edge id=":1771545578_0" function="internal">
        <lane id=":1771545578_0_0" index="0" allow="pedestrian delivery bicycle" speed="3.65" length="4.67" shape="616.41,127.44 616.09,128.85 615.49,129.51 614.60,129.42 613.42,128.59"/>
    </edge>
    <edge id=":1771545624_0" function="internal">
        <lane id=":1771545624_0_0" index="0" disallow="tram rail_urban rail rail_electric rail_fast ship container cable_car subway aircraft wheelchair scooter drone" speed="25.00" length="7.31" shape="742.55,185.14 748.84,188.87"/>
    </edge>
    <edge id=":1771545624_1" function="internal">
        <lane id=":1771545624_1_0" index="0" allow="pedestrian delivery bicycle" speed="8.09" length="7.03" shape="742.55,185.14 743.57,186.07 744.38,187.41 744.97,189.18 745.34,191.37"/>
    </edge>
    <edge id=":1771546589_0" function="internal">
        <lane id=":1771546589_0_0" index="0" allow="pedestrian delivery bicycle" speed="9.72" length="6.94" shape="763.50,137.65 762.38,135.92 761.61,134.74 760.76,133.61 759.40,132.07"/>
    </edge>
    <edge id=":1771546589_1" function="internal">
        <lane id=":1771546589_1_0" index="0" allow="pedestrian delivery bicycle" speed="9.04" length="6.82" shape="765.64,134.05 763.60,133.96 762.12,133.86 760.85,133.36 759.40,132.07"/>
    </edge>
    <edge id=":2277771960_0" function="internal">
        <lane id=":2277771960_0_0" index="0" allow="pedestrian delivery bicycle" speed="5.56" length="9.43" shape="743.09,238.34 734.02,235.75"/>
    </edge>
    <edge id=":2277771960_1" function="internal">
        <lane id=":2277771960_1_0" index="0" allow="pedestrian delivery bicycle" speed="5.56" length="10.25" shape="743.09,238.34 740.82,237.25 739.30,235.53 738.53,233.19 738.51,230.22"/>
    </edge>
    <edge id=":2277771960_2" function="internal">
        <lane id=":2277771960_2_0" index="0" allow="pedestrian delivery bicycle" speed="3.65" length="4.67" shape="743.09,238.34 742.16,237.24 742.01,236.35 742.61,235.70 743.99,235.27"/>
    </edge>
    <edge id=":2277771960_3" function="internal">
        <lane id=":2277771960_3_0" index="0" allow="pedestrian delivery bicycle" speed="5.56" length="5.74" shape="741.69,230.56 741.68,232.32 742.05,233.69 742.83,234.68 743.99,235.27"/>
    </edge>
    <edge id=":2277771960_4" function="internal">
        <lane id=":2277771960_4_0" index="0" allow="pedestrian delivery bicycle" speed="5.56" length="11.00" shape="741.69,230.56 740.92,233.56 739.39,235.42 737.09,236.15 734.02,235.75"/>
    </edge>
    <edge id=":2277771960_5" function="internal">
        <lane id=":2277771960_5_0" index="0" allow="pedestrian delivery bicycle" speed="3.65" length="4.67" shape="741.69,230.56 740.77,231.67 739.93,231.98 739.18,231.50 738.51,230.22"/>
    </edge>
    <edge id=":2277771960_6" function="internal">
        <lane id=":2277771960_6_0" index="0" allow="pedestrian delivery bicycle" speed="4.88" length="5.21" shape="734.88,232.67 736.33,232.86 737.42,232.51 738.15,231.63 738.51,230.22"/>
    </edge>
    <edge id=":2277771960_7" function="internal">
        <lane id=":2277771960_7_0" index="0" allow="pedestrian delivery bicycle" speed="5.56" length="9.47" shape="734.88,232.67 743.99,235.27"/>
    </edge>
    <edge id=":2277771960_8" function="internal">
        <lane id=":2277771960_8_0" index="0" allow="pedestrian delivery bicycle" speed="3.65" length="4.67" shape="734.88,232.67 735.82,233.76 735.99,234.64 735.39,235.31 734.02,235.75"/>
    </edge>
    <edge id=":2277771966_0" function="internal">
        <lane id=":2277771966_0_0" index="0" allow="pedestrian delivery bicycle" speed="5.56" length="9.63" shape="771.82,243.43 774.54,244.61 775.92,246.17 775.98,248.11 774.70,250.42"/>
    </edge>
    <edge id=":2277771966_1" function="internal">
        <lane id=":2277771966_1_0" index="0" allow="pedestrian delivery bicycle" speed="3.86" length="3.21" shape="771.88,248.83 772.30,248.06 772.29,247.42 771.82,246.90 770.92,246.50"/>
    </edge>
    <edge id=":2277772021_0" function="internal">
        <lane id=":2277772021_0_0" index="0" allow="pedestrian delivery bicycle" speed="4.86" length="4.58" shape="749.22,200.75 747.88,200.45 746.81,200.58 745.99,201.15 745.44,202.15"/>
    </edge>
    <edge id=":2277772021_1" function="internal">
        <lane id=":2277772021_1_0" index="0" disallow="tram rail_urban rail rail_electric rail_fast ship container cable_car subway aircraft wheelchair scooter drone" speed="19.44" length="9.44" shape="749.22,200.75 740.28,197.72"/>
    </edge>
    <edge id=":2277772021_2" function="internal">
        <lane id=":2277772021_2_0" index="0" allow="pedestrian delivery bicycle" speed="5.56" length="6.28" shape="745.36,195.95 745.40,197.81 745.68,199.11 745.82,200.38 745.44,202.15"/>
    </edge>
    <edge id=":2277772021_3" function="internal">
        <lane id=":2277772021_3_0" index="0" allow="pedestrian delivery bicycle" speed="5.22" length="6.38" shape="745.36,195.95 744.93,197.31 743.94,198.05 742.39,198.19 740.28,197.72"/>
    </edge>
    <edge id=":2277772021_4" function="internal">
        <lane id=":2277772021_4_0" index="0" allow="pedestrian delivery bicycle" speed="4.82" length="4.56" shape="742.42,201.09 742.60,199.98 742.30,199.05 741.53,198.29 740.28,197.72"/>
    </edge>
    <edge id=":2277772021_5" function="internal">
        <lane id=":2277772021_5_0" index="0" allow="pedestrian delivery bicycle" speed="3.65" length="4.67" shape="742.42,201.09 743.57,200.22 744.46,200.11 745.08,200.75 745.44,202.15"/>
    </edge>
    <edge id=":2277772039_0" function="internal">
        <lane id=":2277772039_0_0" index="0" disallow="tram rail_urban rail rail_electric rail_fast ship container cable_car subway aircraft wheelchair scooter drone" speed="3.65" length="4.67" shape="1.11,487.25 -0.31,487.51 -1.15,487.21 -1.42,486.36 -1.11,484.95"/>
    </edge>
    <edge id=":246669010_0" function="internal">
        <lane id=":246669010_0_0" index="0" disallow="tram rail_urban rail rail_electric rail_fast ship container cable_car subway aircraft wheelchair scooter drone" speed="25.00" length="0.76" shape="655.57,268.73 655.51,268.94 655.46,269.09 655.41,269.24 655.32,269.44"/>
    </edge>
    <edge id=":246669010_1" function="internal">
        <lane id=":246669010_1_0" index="0" disallow="tram rail_urban rail rail_electric rail_fast ship container cable_car subway aircraft wheelchair scooter drone" speed="25.00" length="0.26" shape="652.40,268.12 652.43,268.05 652.45,268.00 652.47,267.95 652.49,267.88"/>
    </edge>
    <edge id=":246669027_0" function="internal">
        <lane id=":246669027_0_0" index="0" disallow="pedestrian bicycle tram rail_urban rail rail_electric rail_fast ship container cable_car subway aircraft wheelchair scooter drone" speed="8.00" length="8.43" shape="723.93,131.51 722.79,133.72 722.23,135.79 722.25,137.71 722.85,139.50"/>
        <lane id=":246669027_0_1" index="1" disallow="pedestrian bicycle tram rail_urban rail rail_electric rail_fast ship container cable_car subway aircraft wheelchair scooter drone" speed="9.57" length="12.34" shape="721.36,129.59 719.79,132.70 719.07,135.69 719.20,138.55 720.18,141.30"/>
    </edge>
    <edge id=":246669027_2" function="internal">
        <lane id=":246669027_2_0" index="0" disallow="tram rail_urban rail rail_electric rail_fast ship container cable_car subway aircraft wheelchair scooter drone" speed="13.89" length="12.02" shape="715.29,130.06 717.96,132.49 719.70,134.29 721.12,136.33 722.85,139.50"/>
        <lane id=":246669027_2_1" index="1" disallow="tram rail_urban rail rail_electric rail_fast ship container cable_car subway aircraft wheelchair scooter drone" speed="13.89" length="12.02" shape="712.85,132.17 715.44,134.52 717.12,136.26 718.50,138.24 720.18,141.30"/>
    </edge>
    <edge id=":246669032_0" function="internal">
        <lane id=":246669032_0_0" index="0" disallow="tram rail_urban rail rail_electric rail_fast ship container cable_car subway aircraft wheelchair scooter drone" speed="8.03" length="7.45" shape="653.30,185.75 652.12,184.58 650.61,183.75 648.77,183.27 646.61,183.14"/>
    </edge>
    <edge id=":246669032_1" function="internal">
        <lane id=":246669032_1_0" index="0" disallow="tram rail_urban rail rail_electric rail_fast ship container cable_car subway aircraft wheelchair scooter drone" speed="13.89" length="7.94" shape="653.30,185.75 651.83,183.84 650.85,182.50 650.03,181.07 649.02,178.89"/>
        <lane id=":246669032_1_1" index="1" disallow="tram rail_urban rail rail_electric rail_fast ship container cable_car subway aircraft wheelchair scooter drone" speed="13.89" length="7.94" shape="655.85,183.83 654.46,182.00 653.53,180.71 652.75,179.34 651.80,177.25"/>
    </edge>
    <edge id=":246669033_0" function="internal">