<?xml version="1.0" encoding="UTF-8"?>

<!-- generated on 2024-09-03 01:37:10.137197 by randomTrips.py UNKNOWN
<configuration>
    <net-file value="train_files/intersection/easy/outputs/map(66)_dict/map(66)/map(66).net.xml"/>
    <output-trip-file value="train_files/intersection/easy/outputs/map(66)_dict/map(66)/map(66).trips.xml"/>
    <fringe-factor value="max"/>
    <validate value="True"/>
    <period value="3.6"/>
</configuration>
-->

<!-- generated on 2024-09-03 01:37:10 by Eclipse SUMO duarouter Version 1.20.0
<configuration xmlns:xsi="http://www.w3.org/2001/XMLSchema-instance" xsi:noNamespaceSchemaLocation="http://sumo.dlr.de/xsd/duarouterConfiguration.xsd">

    <input>
        <net-file value="train_files/intersection/easy/outputs/map(66)_dict/map(66)/map(66).net.xml"/>
        <route-files value="train_files/intersection/easy/outputs/map(66)_dict/map(66)/map(66).trips.xml"/>
    </input>

    <output>
        <output-file value="train_files/intersection/easy/outputs/map(66)_dict/map(66)/map(66).trips.xml.tmp"/>
        <alternatives-output value="NUL"/>
        <write-trips value="true"/>
    </output>

    <time>
        <begin value="0"/>
        <end value="3600"/>
    </time>

    <report>
        <no-warnings value="true"/>
        <ignore-errors value="true"/>
        <no-step-log value="true"/>
    </report>

</configuration>
-->

<routes xmlns:xsi="http://www.w3.org/2001/XMLSchema-instance" xsi:noNamespaceSchemaLocation="http://sumo.dlr.de/xsd/routes_file.xsd">
    <trip id="3" depart="10.80" from="733023542#0" to="-286506389"/>
    <trip id="4" depart="14.40" from="286506389" to="-286506389"/>
    <trip id="6" depart="21.60" from="-42809504" to="1025481671"/>
    <trip id="9" depart="32.40" from="727236153#0" to="-286506389"/>
    <trip id="11" depart="39.60" from="286506389" to="-286506389"/>
    <trip id="13" depart="46.80" from="-42809504" to="-286506389"/>
    <trip id="14" depart="50.40" from="733023542#0" to="23139733"/>
    <trip id="17" depart="61.20" from="286506389" to="23139733"/>
    <trip id="18" depart="64.80" from="727236153#0" to="23139733"/>
    <trip id="19" depart="68.40" from="733023542#0" to="23139733"/>
    <trip id="20" depart="72.00" from="727236153#0" to="-286506389"/>
    <trip id="22" depart="79.20" from="-42809504" to="1025481671"/>
    <trip id="23" depart="82.80" from="-42809504" to="1025481671"/>
    <trip id="25" depart="90.00" from="286506389" to="1025481671"/>
    <trip id="30" depart="108.00" from="733023542#0" to="23139733"/>
    <trip id="31" depart="111.60" from="42809043" to="42809290"/>
    <trip id="36" depart="129.60" from="733023542#0" to="1025481671"/>
    <trip id="42" depart="151.20" from="286506389" to="1025481671"/>
    <trip id="43" depart="154.80" from="733023542#0" to="23139733"/>
    <trip id="44" depart="158.40" from="-42809504" to="-286506389"/>
    <trip id="45" depart="162.00" from="-42809504" to="23139733"/>
    <trip id="48" depart="172.80" from="733023542#0" to="23139733"/>
    <trip id="49" depart="176.40" from="733023542#0" to="42809504"/>
    <trip id="51" depart="183.60" from="727236153#0" to="23139733"/>
    <trip id="55" depart="198.00" from="733023542#0" to="1025481671"/>
    <trip id="57" depart="205.20" from="733023542#0" to="42809504"/>
    <trip id="60" depart="216.00" from="727236153#0" to="23139733"/>
    <trip id="61" depart="219.60" from="727236153#0" to="23139733"/>
    <trip id="62" depart="223.20" from="-42809504" to="1025481671"/>
    <trip id="63" depart="226.80" from="-42809504" to="42809504"/>
    <trip id="66" depart="237.60" from="733023542#0" to="42809504"/>
    <trip id="69" depart="248.40" from="727236153#0" to="-286506389"/>
    <trip id="70" depart="252.00" from="286506389" to="23139733"/>
    <trip id="72" depart="259.20" from="286506389" to="1025481671"/>
    <trip id="73" depart="262.80" from="42809043" to="42809290"/>
    <trip id="75" depart="270.00" from="733023542#0" to="23139733"/>
    <trip id="76" depart="273.60" from="286506389" to="23139733"/>
    <trip id="77" depart="277.20" from="-42809504" to="1025481671"/>
    <trip id="78" depart="280.80" from="286506389" to="23139733"/>
    <trip id="80" depart="288.00" from="-42809504" to="23139733"/>
    <trip id="82" depart="295.20" from="733023542#0" to="-286506389"/>
    <trip id="85" depart="306.00" from="733023542#0" to="23139733"/>
    <trip id="87" depart="313.20" from="727236153#0" to="1025481671"/>
    <trip id="91" depart="327.60" from="733023542#0" to="-286506389"/>
    <trip id="93" depart="334.80" from="733023542#0" to="1025481671"/>
    <trip id="94" depart="338.40" from="1025481675" to="172192394"/>
    <trip id="95" depart="342.00" from="286506389" to="1025481671"/>
    <trip id="99" depart="356.40" from="733023542#0" to="42809504"/>
    <trip id="100" depart="360.00" from="733023542#0" to="42809504"/>
    <trip id="101" depart="363.60" from="733023542#0" to="-286506389"/>
    <trip id="102" depart="367.20" from="286506389" to="1025481671"/>
    <trip id="103" depart="370.80" from="286506389" to="-286506389"/>
    <trip id="107" depart="385.20" from="733023542#0" to="42809504"/>
    <trip id="108" depart="388.80" from="42809043" to="42809290"/>
    <trip id="109" depart="392.40" from="-42809504" to="1025481671"/>
    <trip id="110" depart="396.00" from="733023542#0" to="23139733"/>
    <trip id="111" depart="399.60" from="42809043" to="42809290"/>
    <trip id="112" depart="403.20" from="-42809504" to="23139733"/>
    <trip id="114" depart="410.40" from="-42809504" to="42809504"/>
    <trip id="115" depart="414.00" from="-42809504" to="1025481671"/>
    <trip id="116" depart="417.60" from="42809043" to="42809290"/>
    <trip id="118" depart="424.80" from="733023542#0" to="1025481671"/>
    <trip id="120" depart="432.00" from="286506389" to="23139733"/>
    <trip id="123" depart="442.80" from="1025481675" to="172192394"/>
    <trip id="124" depart="446.40" from="727236153#0" to="1025481671"/>
    <trip id="127" depart="457.20" from="733023542#0" to="42809504"/>
    <trip id="128" depart="460.80" from="-42809504" to="1025481671"/>
    <trip id="130" depart="468.00" from="733023542#0" to="42809504"/>
    <trip id="131" depart="471.60" from="286506389" to="-286506389"/>
    <trip id="135" depart="486.00" from="727236153#0" to="1025481671"/>
    <trip id="137" depart="493.20" from="-42809504" to="-286506389"/>
    <trip id="138" depart="496.80" from="-42809504" to="23139733"/>
    <trip id="140" depart="504.00" from="727236153#0" to="1025481671"/>
    <trip id="143" depart="514.80" from="733023542#0" to="-286506389"/>
    <trip id="144" depart="518.40" from="286506389" to="1025481671"/>
    <trip id="147" depart="529.20" from="727236153#0" to="23139733"/>
    <trip id="148" depart="532.80" from="286506389" to="-286506389"/>
    <trip id="149" depart="536.40" from="-42809504" to="42809504"/>
    <trip id="150" depart="540.00" from="733023542#0" to="23139733"/>
    <trip id="151" depart="543.60" from="733023542#0" to="23139733"/>
    <trip id="152" depart="547.20" from="-42809504" to="-286506389"/>
    <trip id="154" depart="554.40" from="727236153#0" to="42809504"/>
    <trip id="155" depart="558.00" from="733023542#0" to="1025481671"/>
    <trip id="157" depart="565.20" from="727236153#0" to="42809504"/>
    <trip id="158" depart="568.80" from="286506389" to="23139733"/>
    <trip id="159" depart="572.40" from="-42809504" to="42809504"/>
    <trip id="160" depart="576.00" from="733023542#0" to="42809504"/>
    <trip id="161" depart="579.60" from="727236153#0" to="42809504"/>
    <trip id="164" depart="590.40" from="727236153#0" to="42809504"/>
    <trip id="165" depart="594.00" from="727236153#0" to="1025481671"/>
    <trip id="166" depart="597.60" from="727236153#0" to="-286506389"/>
    <trip id="167" depart="601.20" from="733023542#0" to="42809504"/>
    <trip id="169" depart="608.40" from="286506389" to="1025481671"/>
    <trip id="170" depart="612.00" from="727236153#0" to="1025481671"/>
    <trip id="171" depart="615.60" from="-42809504" to="1025481671"/>
    <trip id="173" depart="622.80" from="733023542#0" to="1025481671"/>
    <trip id="175" depart="630.00" from="733023542#0" to="23139733"/>
    <trip id="176" depart="633.60" from="733023542#0" to="-286506389"/>
    <trip id="177" depart="637.20" from="733023542#0" to="1025481671"/>
    <trip id="178" depart="640.80" from="733023542#0" to="1025481671"/>
    <trip id="180" depart="648.00" from="727236153#0" to="1025481671"/>
    <trip id="182" depart="655.20" from="286506389" to="23139733"/>
    <trip id="184" depart="662.40" from="-42809504" to="42809504"/>
    <trip id="185" depart="666.00" from="42809043" to="42809290"/>
    <trip id="187" depart="673.20" from="286506389" to="-286506389"/>
    <trip id="190" depart="684.00" from="727236153#0" to="1025481671"/>
    <trip id="191" depart="687.60" from="1025481675" to="172192394"/>
    <trip id="192" depart="691.20" from="286506389" to="1025481671"/>
    <trip id="195" depart="702.00" from="733023542#0" to="23139733"/>
    <trip id="197" depart="709.20" from="-42809504" to="1025481671"/>
    <trip id="198" depart="712.80" from="286506389" to="23139733"/>
    <trip id="200" depart="720.00" from="286506389" to="1025481671"/>
    <trip id="202" depart="727.20" from="727236153#0" to="1025481671"/>
    <trip id="203" depart="730.80" from="-42809504" to="23139733"/>
    <trip id="206" depart="741.60" from="727236153#0" to="1025481671"/>
    <trip id="208" depart="748.80" from="1025481675" to="172192394"/>
    <trip id="209" depart="752.40" from="733023542#0" to="-286506389"/>
    <trip id="210" depart="756.00" from="286506389" to="23139733"/>
    <trip id="212" depart="763.20" from="286506389" to="1025481671"/>
    <trip id="220" depart="792.00" from="727236153#0" to="42809504"/>
    <trip id="222" depart="799.20" from="733023542#0" to="23139733"/>
    <trip id="223" depart="802.80" from="727236153#0" to="23139733"/>
    <trip id="224" depart="806.40" from="727236153#0" to="23139733"/>
    <trip id="226" depart="813.60" from="286506389" to="1025481671"/>
    <trip id="228" depart="820.80" from="727236153#0" to="23139733"/>
    <trip id="230" depart="828.00" from="-42809504" to="1025481671"/>
    <trip id="234" depart="842.40" from="727236153#0" to="-286506389"/>
    <trip id="235" depart="846.00" from="286506389" to="23139733"/>
    <trip id="236" depart="849.60" from="286506389" to="1025481671"/>
    <trip id="238" depart="856.80" from="42809043" to="42809290"/>
    <trip id="240" depart="864.00" from="286506389" to="-286506389"/>
    <trip id="242" depart="871.20" from="733023542#0" to="42809504"/>
    <trip id="246" depart="885.60" from="286506389" to="-286506389"/>
    <trip id="248" depart="892.80" from="286506389" to="-286506389"/>
    <trip id="249" depart="896.40" from="286506389" to="-286506389"/>
    <trip id="251" depart="903.60" from="286506389" to="23139733"/>
    <trip id="252" depart="907.20" from="-42809504" to="23139733"/>
    <trip id="259" depart="932.40" from="-42809504" to="23139733"/>
    <trip id="261" depart="939.60" from="42809043" to="42809290"/>
    <trip id="262" depart="943.20" from="42809043" to="42809290"/>
    <trip id="263" depart="946.80" from="733023542#0" to="1025481671"/>
    <trip id="264" depart="950.40" from="-42809504" to="-286506389"/>
    <trip id="269" depart="968.40" from="727236153#0" to="-286506389"/>
    <trip id="270" depart="972.00" from="727236153#0" to="42809504"/>
    <trip id="271" depart="975.60" from="-42809504" to="-286506389"/>
    <trip id="274" depart="986.40" from="727236153#0" to="-286506389"/>
    <trip id="275" depart="990.00" from="727236153#0" to="23139733"/>
    <trip id="277" depart="997.20" from="733023542#0" to="23139733"/>
    <trip id="278" depart="1000.80" from="-42809504" to="42809504"/>
    <trip id="283" depart="1018.80" from="-42809504" to="42809504"/>
    <trip id="284" depart="1022.40" from="42809043" to="42809290"/>
    <trip id="286" depart="1029.60" from="727236153#0" to="42809504"/>
    <trip id="291" depart="1047.60" from="727236153#0" to="-286506389"/>
    <trip id="292" depart="1051.20" from="733023542#0" to="1025481671"/>
    <trip id="293" depart="1054.80" from="286506389" to="23139733"/>
    <trip id="294" depart="1058.40" from="286506389" to="-286506389"/>
    <trip id="295" depart="1062.00" from="733023542#0" to="1025481671"/>
    <trip id="298" depart="1072.80" from="727236153#0" to="1025481671"/>
    <trip id="299" depart="1076.40" from="-42809504" to="42809504"/>
    <trip id="302" depart="1087.20" from="727236153#0" to="23139733"/>
    <trip id="304" depart="1094.40" from="-42809504" to="1025481671"/>
    <trip id="305" depart="1098.00" from="727236153#0" to="1025481671"/>
    <trip id="308" depart="1108.80" from="727236153#0" to="1025481671"/>
    <trip id="309" depart="1112.40" from="727236153#0" to="1025481671"/>
    <trip id="312" depart="1123.20" from="42809043" to="42809290"/>
    <trip id="315" depart="1134.00" from="733023542#0" to="23139733"/>
    <trip id="320" depart="1152.00" from="733023542#0" to="23139733"/>
    <trip id="321" depart="1155.60" from="727236153#0" to="-286506389"/>
    <trip id="323" depart="1162.80" from="733023542#0" to="23139733"/>
    <trip id="328" depart="1180.80" from="-42809504" to="23139733"/>
    <trip id="329" depart="1184.40" from="-42809504" to="-286506389"/>
    <trip id="331" depart="1191.60" from="733023542#0" to="-286506389"/>
    <trip id="332" depart="1195.20" from="727236153#0" to="23139733"/>
    <trip id="333" depart="1198.80" from="727236153#0" to="1025481671"/>
    <trip id="336" depart="1209.60" from="733023542#0" to="1025481671"/>
    <trip id="338" depart="1216.80" from="727236153#0" to="42809504"/>
    <trip id="346" depart="1245.60" from="727236153#0" to="42809504"/>
    <trip id="347" depart="1249.20" from="727236153#0" to="23139733"/>
    <trip id="349" depart="1256.40" from="286506389" to="23139733"/>
    <trip id="351" depart="1263.60" from="727236153#0" to="-286506389"/>
    <trip id="352" depart="1267.20" from="-42809504" to="1025481671"/>
    <trip id="353" depart="1270.80" from="727236153#0" to="23139733"/>
    <trip id="356" depart="1281.60" from="733023542#0" to="23139733"/>
    <trip id="357" depart="1285.20" from="286506389" to="-286506389"/>
    <trip id="360" depart="1296.00" from="-42809504" to="42809504"/>
    <trip id="361" depart="1299.60" from="733023542#0" to="23139733"/>
    <trip id="362" depart="1303.20" from="733023542#0" to="42809504"/>
    <trip id="363" depart="1306.80" from="727236153#0" to="1025481671"/>
    <trip id="365" depart="1314.00" from="286506389" to="23139733"/>
    <trip id="366" depart="1317.60" from="733023542#0" to="1025481671"/>
    <trip id="368" depart="1324.80" from="286506389" to="-286506389"/>
    <trip id="369" depart="1328.40" from="286506389" to="1025481671"/>
    <trip id="370" depart="1332.00" from="727236153#0" to="42809504"/>
    <trip id="373" depart="1342.80" from="727236153#0" to="23139733"/>
    <trip id="374" depart="1346.40" from="286506389" to="1025481671"/>
    <trip id="376" depart="1353.60" from="286506389" to="23139733"/>
    <trip id="377" depart="1357.20" from="733023542#0" to="23139733"/>
    <trip id="379" depart="1364.40" from="1025481675" to="172192394"/>
    <trip id="380" depart="1368.00" from="727236153#0" to="23139733"/>
    <trip id="381" depart="1371.60" from="727236153#0" to="1025481671"/>
    <trip id="384" depart="1382.40" from="-42809504" to="42809504"/>
    <trip id="386" depart="1389.60" from="-42809504" to="23139733"/>
    <trip id="388" depart="1396.80" from="733023542#0" to="42809504"/>
    <trip id="389" depart="1400.40" from="286506389" to="-286506389"/>
    <trip id="391" depart="1407.60" from="727236153#0" to="23139733"/>
    <trip id="393" depart="1414.80" from="733023542#0" to="1025481671"/>
    <trip id="395" depart="1422.00" from="733023542#0" to="23139733"/>
    <trip id="396" depart="1425.60" from="733023542#0" to="42809504"/>
    <trip id="399" depart="1436.40" from="42809043" to="42809290"/>
    <trip id="402" depart="1447.20" from="286506389" to="-286506389"/>
    <trip id="405" depart="1458.00" from="286506389" to="1025481671"/>
    <trip id="408" depart="1468.80" from="727236153#0" to="-286506389"/>
    <trip id="411" depart="1479.60" from="42809043" to="42809290"/>
    <trip id="413" depart="1486.80" from="-42809504" to="23139733"/>
    <trip id="422" depart="1519.20" from="733023542#0" to="42809504"/>
    <trip id="423" depart="1522.80" from="286506389" to="1025481671"/>
    <trip id="425" depart="1530.00" from="733023542#0" to="-286506389"/>
    <trip id="426" depart="1533.60" from="-42809504" to="23139733"/>
    <trip id="427" depart="1537.20" from="733023542#0" to="42809504"/>
    <trip id="429" depart="1544.40" from="-42809504" to="23139733"/>
    <trip id="431" depart="1551.60" from="727236153#0" to="42809504"/>
    <trip id="433" depart="1558.80" from="1025481675" to="172192394"/>
    <trip id="434" depart="1562.40" from="-42809504" to="23139733"/>
    <trip id="435" depart="1566.00" from="42809043" to="42809290"/>
    <trip id="437" depart="1573.20" from="733023542#0" to="23139733"/>
    <trip id="444" depart="1598.40" from="286506389" to="23139733"/>
    <trip id="447" depart="1609.20" from="1025481675" to="172192394"/>
    <trip id="448" depart="1612.80" from="286506389" to="1025481671"/>
    <trip id="450" depart="1620.00" from="733023542#0" to="1025481671"/>
    <trip id="451" depart="1623.60" from="733023542#0" to="23139733"/>
    <trip id="454" depart="1634.40" from="-42809504" to="23139733"/>
    <trip id="463" depart="1666.80" from="286506389" to="23139733"/>
    <trip id="464" depart="1670.40" from="727236153#0" to="-286506389"/>
    <trip id="469" depart="1688.40" from="727236153#0" to="1025481671"/>
    <trip id="472" depart="1699.20" from="286506389" to="-286506389"/>
    <trip id="473" depart="1702.80" from="733023542#0" to="-286506389"/>
    <trip id="474" depart="1706.40" from="733023542#0" to="42809504"/>
    <trip id="475" depart="1710.00" from="727236153#0" to="42809504"/>
    <trip id="478" depart="1720.80" from="-42809504" to="23139733"/>
    <trip id="480" depart="1728.00" from="727236153#0" to="23139733"/>
    <trip id="481" depart="1731.60" from="727236153#0" to="42809504"/>
    <trip id="482" depart="1735.20" from="-42809504" to="1025481671"/>
    <trip id="483" depart="1738.80" from="-42809504" to="42809504"/>
    <trip id="486" depart="1749.60" from="727236153#0" to="42809504"/>
    <trip id="487" depart="1753.20" from="1025481675" to="172192394"/>
    <trip id="488" depart="1756.80" from="-42809504" to="42809504"/>
    <trip id="489" depart="1760.40" from="1025481675" to="172192394"/>
    <trip id="490" depart="1764.00" from="-42809504" to="42809504"/>
    <trip id="494" depart="1778.40" from="727236153#0" to="-286506389"/>
    <trip id="495" depart="1782.00" from="286506389" to="-286506389"/>
    <trip id="497" depart="1789.20" from="733023542#0" to="-286506389"/>
    <trip id="499" depart="1796.40" from="733023542#0" to="42809504"/>
    <trip id="507" depart="1825.20" from="727236153#0" to="1025481671"/>
    <trip id="508" depart="1828.80" from="-42809504" to="23139733"/>
    <trip id="511" depart="1839.60" from="733023542#0" to="1025481671"/>
    <trip id="512" depart="1843.20" from="-42809504" to="42809504"/>
    <trip id="513" depart="1846.80" from="-42809504" to="42809504"/>
    <trip id="514" depart="1850.40" from="-42809504" to="-286506389"/>
    <trip id="520" depart="1872.00" from="727236153#0" to="23139733"/>
    <trip id="522" depart="1879.20" from="727236153#0" to="23139733"/>
    <trip id="523" depart="1882.80" from="-42809504" to="23139733"/>
    <trip id="524" depart="1886.40" from="733023542#0" to="-286506389"/>
    <trip id="525" depart="1890.00" from="727236153#0" to="42809504"/>
    <trip id="527" depart="1897.20" from="733023542#0" to="-286506389"/>
    <trip id="530" depart="1908.00" from="733023542#0" to="-286506389"/>
    <trip id="531" depart="1911.60" from="-42809504" to="23139733"/>
    <trip id="532" depart="1915.20" from="-42809504" to="1025481671"/>
    <trip id="537" depart="1933.20" from="727236153#0" to="42809504"/>
    <trip id="538" depart="1936.80" from="42809043" to="42809290"/>
    <trip id="539" depart="1940.40" from="727236153#0" to="1025481671"/>
    <trip id="540" depart="1944.00" from="286506389" to="1025481671"/>
    <trip id="542" depart="1951.20" from="286506389" to="-286506389"/>
    <trip id="543" depart="1954.80" from="286506389" to="23139733"/>
    <trip id="544" depart="1958.40" from="286506389" to="-286506389"/>
    <trip id="545" depart="1962.00" from="733023542#0" to="-286506389"/>
    <trip id="546" depart="1965.60" from="727236153#0" to="-286506389"/>
    <trip id="548" depart="1972.80" from="727236153#0" to="23139733"/>
    <trip id="551" depart="1983.60" from="286506389" to="23139733"/>
    <trip id="552" depart="1987.20" from="727236153#0" to="42809504"/>
    <trip id="553" depart="1990.80" from="727236153#0" to="42809504"/>
    <trip id="557" depart="2005.20" from="-42809504" to="42809504"/>
    <trip id="559" depart="2012.40" from="42809043" to="42809290"/>
    <trip id="560" depart="2016.00" from="733023542#0" to="42809504"/>
    <trip id="561" depart="2019.60" from="727236153#0" to="23139733"/>
    <trip id="565" depart="2034.00" from="727236153#0" to="1025481671"/>
    <trip id="566" depart="2037.60" from="286506389" to="-286506389"/>
    <trip id="567" depart="2041.20" from="733023542#0" to="23139733"/>
    <trip id="568" depart="2044.80" from="286506389" to="-286506389"/>
    <trip id="570" depart="2052.00" from="727236153#0" to="1025481671"/>
    <trip id="573" depart="2062.80" from="727236153#0" to="23139733"/>
    <trip id="574" depart="2066.40" from="-42809504" to="-286506389"/>
    <trip id="575" depart="2070.00" from="-42809504" to="23139733"/>
    <trip id="576" depart="2073.60" from="727236153#0" to="1025481671"/>
    <trip id="578" depart="2080.80" from="286506389" to="1025481671"/>
    <trip id="579" depart="2084.40" from="727236153#0" to="-286506389"/>
    <trip id="580" depart="2088.00" from="286506389" to="1025481671"/>
    <trip id="582" depart="2095.20" from="727236153#0" to="-286506389"/>
    <trip id="583" depart="2098.80" from="286506389" to="23139733"/>
    <trip id="584" depart="2102.40" from="-42809504" to="1025481671"/>
    <trip id="588" depart="2116.80" from="1025481675" to="172192394"/>
    <trip id="589" depart="2120.40" from="727236153#0" to="23139733"/>
    <trip id="591" depart="2127.60" from="-42809504" to="42809504"/>
    <trip id="592" depart="2131.20" from="-42809504" to="-286506389"/>
    <trip id="593" depart="2134.80" from="733023542#0" to="42809504"/>
    <trip id="596" depart="2145.60" from="-42809504" to="-286506389"/>
    <trip id="598" depart="2152.80" from="42809043" to="42809290"/>
    <trip id="599" depart="2156.40" from="733023542#0" to="-286506389"/>
    <trip id="600" depart="2160.00" from="733023542#0" to="1025481671"/>
    <trip id="602" depart="2167.20" from="286506389" to="1025481671"/>
    <trip id="603" depart="2170.80" from="286506389" to="1025481671"/>
    <trip id="605" depart="2178.00" from="-42809504" to="23139733"/>
    <trip id="608" depart="2188.80" from="727236153#0" to="1025481671"/>
    <trip id="609" depart="2192.40" from="-42809504" to="1025481671"/>
    <trip id="610" depart="2196.00" from="42809043" to="42809290"/>
    <trip id="620" depart="2232.00" from="-42809504" to="23139733"/>
    <trip id="621" depart="2235.60" from="1025481675" to="172192394"/>
    <trip id="623" depart="2242.80" from="-42809504" to="42809504"/>
    <trip id="624" depart="2246.40" from="733023542#0" to="23139733"/>
    <trip id="626" depart="2253.60" from="42809043" to="42809290"/>
    <trip id="628" depart="2260.80" from="727236153#0" to="23139733"/>
    <trip id="629" depart="2264.40" from="1025481675" to="172192394"/>
    <trip id="630" depart="2268.00" from="-42809504" to="-286506389"/>
    <trip id="631" depart="2271.60" from="-42809504" to="42809504"/>
    <trip id="634" depart="2282.40" from="1025481675" to="172192394"/>
    <trip id="635" depart="2286.00" from="286506389" to="23139733"/>
    <trip id="637" depart="2293.20" from="1025481675" to="172192394"/>
    <trip id="638" depart="2296.80" from="286506389" to="23139733"/>
    <trip id="639" depart="2300.40" from="727236153#0" to="23139733"/>
    <trip id="640" depart="2304.00" from="-42809504" to="-286506389"/>
    <trip id="641" depart="2307.60" from="727236153#0" to="1025481671"/>
    <trip id="642" depart="2311.20" from="727236153#0" to="23139733"/>
    <trip id="643" depart="2314.80" from="733023542#0" to="42809504"/>
    <trip id="644" depart="2318.40" from="286506389" to="23139733"/>
    <trip id="647" depart="2329.20" from="286506389" to="23139733"/>
    <trip id="648" depart="2332.80" from="733023542#0" to="1025481671"/>
    <trip id="652" depart="2347.20" from="727236153#0" to="23139733"/>
    <trip id="658" depart="2368.80" from="-42809504" to="42809504"/>
    <trip id="660" depart="2376.00" from="733023542#0" to="42809504"/>
    <trip id="662" depart="2383.20" from="727236153#0" to="-286506389"/>
    <trip id="663" depart="2386.80" from="286506389" to="-286506389"/>
    <trip id="665" depart="2394.00" from="727236153#0" to="-286506389"/>
    <trip id="667" depart="2401.20" from="727236153#0" to="1025481671"/>
    <trip id="668" depart="2404.80" from="286506389" to="1025481671"/>
    <trip id="673" depart="2422.80" from="733023542#0" to="42809504"/>
    <trip id="674" depart="2426.40" from="286506389" to="1025481671"/>
    <trip id="675" depart="2430.00" from="286506389" to="23139733"/>
    <trip id="677" depart="2437.20" from="727236153#0" to="-286506389"/>
    <trip id="679" depart="2444.40" from="733023542#0" to="23139733"/>
    <trip id="680" depart="2448.00" from="-42809504" to="42809504"/>
    <trip id="681" depart="2451.60" from="733023542#0" to="1025481671"/>
    <trip id="682" depart="2455.20" from="727236153#0" to="1025481671"/>
    <trip id="683" depart="2458.80" from="733023542#0" to="-286506389"/>
    <trip id="685" depart="2466.00" from="1025481675" to="172192394"/>
    <trip id="686" depart="2469.60" from="286506389" to="-286506389"/>
    <trip id="687" depart="2473.20" from="-42809504" to="23139733"/>
    <trip id="689" depart="2480.40" from="286506389" to="-286506389"/>
    <trip id="690" depart="2484.00" from="733023542#0" to="42809504"/>
    <trip id="691" depart="2487.60" from="42809043" to="42809290"/>
    <trip id="692" depart="2491.20" from="-42809504" to="1025481671"/>
    <trip id="695" depart="2502.00" from="286506389" to="-286506389"/>
    <trip id="696" depart="2505.60" from="-42809504" to="1025481671"/>
    <trip id="697" depart="2509.20" from="733023542#0" to="23139733"/>
    <trip id="698" depart="2512.80" from="727236153#0" to="23139733"/>
    <trip id="699" depart="2516.40" from="-42809504" to="1025481671"/>
    <trip id="702" depart="2527.20" from="286506389" to="-286506389"/>
    <trip id="703" depart="2530.80" from="733023542#0" to="23139733"/>
    <trip id="704" depart="2534.40" from="-42809504" to="23139733"/>
    <trip id="706" depart="2541.60" from="286506389" to="23139733"/>
    <trip id="707" depart="2545.20" from="1025481675" to="172192394"/>
    <trip id="709" depart="2552.40" from="733023542#0" to="-286506389"/>
    <trip id="711" depart="2559.60" from="733023542#0" to="23139733"/>
    <trip id="716" depart="2577.60" from="727236153#0" to="23139733"/>
    <trip id="719" depart="2588.40" from="42809043" to="42809290"/>
    <trip id="722" depart="2599.20" from="42809043" to="42809290"/>
    <trip id="724" depart="2606.40" from="286506389" to="1025481671"/>
    <trip id="725" depart="2610.00" from="-42809504" to="1025481671"/>
    <trip id="726" depart="2613.60" from="-42809504" to="42809504"/>
    <trip id="729" depart="2624.40" from="727236153#0" to="1025481671"/>
    <trip id="731" depart="2631.60" from="733023542#0" to="1025481671"/>
    <trip id="737" depart="2653.20" from="42809043" to="42809290"/>
    <trip id="738" depart="2656.80" from="727236153#0" to="-286506389"/>
    <trip id="739" depart="2660.40" from="42809043" to="42809290"/>
    <trip id="741" depart="2667.60" from="-42809504" to="23139733"/>
    <trip id="744" depart="2678.40" from="286506389" to="-286506389"/>
    <trip id="746" depart="2685.60" from="733023542#0" to="1025481671"/>
    <trip id="747" depart="2689.20" from="733023542#0" to="42809504"/>
    <trip id="748" depart="2692.80" from="-42809504" to="23139733"/>
    <trip id="750" depart="2700.00" from="727236153#0" to="42809504"/>
    <trip id="751" depart="2703.60" from="-42809504" to="23139733"/>
    <trip id="752" depart="2707.20" from="727236153#0" to="-286506389"/>
    <trip id="756" depart="2721.60" from="727236153#0" to="42809504"/>
    <trip id="759" depart="2732.40" from="286506389" to="23139733"/>
    <trip id="762" depart="2743.20" from="286506389" to="23139733"/>
    <trip id="766" depart="2757.60" from="286506389" to="-286506389"/>
    <trip id="770" depart="2772.00" from="733023542#0" to="1025481671"/>
    <trip id="771" depart="2775.60" from="286506389" to="-286506389"/>
    <trip id="774" depart="2786.40" from="733023542#0" to="23139733"/>
    <trip id="775" depart="2790.00" from="727236153#0" to="23139733"/>
    <trip id="776" depart="2793.60" from="-42809504" to="1025481671"/>
    <trip id="778" depart="2800.80" from="-42809504" to="23139733"/>
    <trip id="781" depart="2811.60" from="-42809504" to="1025481671"/>
    <trip id="783" depart="2818.80" from="42809043" to="42809290"/>
    <trip id="784" depart="2822.40" from="727236153#0" to="-286506389"/>
    <trip id="785" depart="2826.00" from="733023542#0" to="23139733"/>
    <trip id="788" depart="2836.80" from="727236153#0" to="23139733"/>