<?xml version="1.0" encoding="UTF-8"?>

<!-- generated on 2024-09-03 01:38:13 by Eclipse SUMO netconvert Version 1.20.0
<configuration xmlns:xsi="http://www.w3.org/2001/XMLSchema-instance" xsi:noNamespaceSchemaLocation="http://sumo.dlr.de/xsd/netconvertConfiguration.xsd">

    <input>
        <osm-files value="train_files/roundabout/hard/osm_files/map(1).osm"/>
    </input>

    <output>
        <output-file value="train_files/roundabout/hard/outputs/map(1)_dict/map(1)/map(1).net.xml"/>
    </output>

    <projection>
        <proj.utm value="true"/>
    </projection>

    <building_defaults>
        <default.junctions.keep-clear value="false"/>
    </building_defaults>

</configuration>
-->

<net version="1.20" junctionCornerDetail="5" limitTurnSpeed="5.50" xmlns:xsi="http://www.w3.org/2001/XMLSchema-instance" xsi:noNamespaceSchemaLocation="http://sumo.dlr.de/xsd/net_file.xsd">

    <location netOffset="-461293.21,-5401188.95" convBoundary="0.00,0.00,225.26,164.42" origBoundary="2.473294,48.762514,2.476362,48.763989" projParameter="+proj=utm +zone=31 +ellps=WGS84 +datum=WGS84 +units=m +no_defs"/>

    <type id="highway.footway" priority="1" numLanes="1" speed="2.78" allow="pedestrian" oneway="1" width="2.00"/>
    <type id="highway.residential" priority="3" numLanes="1" speed="13.89" disallow="tram rail_urban rail rail_electric rail_fast ship container cable_car subway aircraft wheelchair scooter drone" oneway="0"/>
    <type id="highway.service" priority="1" numLanes="1" speed="5.56" allow="pedestrian delivery bicycle" oneway="0"/>

    <edge id=":11585151546_0" function="internal">
        <lane id=":11585151546_0_0" index="0" allow="pedestrian delivery bicycle" speed="5.56" length="5.26" shape="147.19,89.71 145.90,88.83 145.05,88.19 144.24,87.48 143.10,86.42"/>
    </edge>
    <edge id=":11585151546_1" function="internal">
        <lane id=":11585151546_1_0" index="0" allow="pedestrian delivery bicycle" speed="3.65" length="1.44" shape="147.19,89.71 146.63,88.38"/>
    </edge>
    <edge id=":11585151546_4" function="internal">
        <lane id=":11585151546_4_0" index="0" allow="pedestrian delivery bicycle" speed="3.65" length="3.23" shape="146.63,88.38 146.74,87.49 147.51,87.05 148.96,87.05"/>
    </edge>
    <edge id=":11585151546_2" function="internal">
        <lane id=":11585151546_2_0" index="0" allow="pedestrian delivery bicycle" speed="5.56" length="4.76" shape="145.26,84.06 146.30,85.02 147.02,85.66 147.79,86.25 148.96,87.05"/>
    </edge>
    <edge id=":11585151546_3" function="internal">
        <lane id=":11585151546_3_0" index="0" allow="pedestrian delivery bicycle" speed="3.65" length="1.44" shape="145.26,84.06 145.60,85.46"/>
    </edge>
    <edge id=":11585151546_5" function="internal">
        <lane id=":11585151546_5_0" index="0" allow="pedestrian delivery bicycle" speed="3.65" length="3.23" shape="145.60,85.46 145.36,86.32 144.52,86.64 143.10,86.42"/>
    </edge>
    <edge id=":2478884810_0" function="internal">
        <lane id=":2478884810_0_0" index="0" allow="pedestrian delivery bicycle" speed="5.35" length="5.20" shape="121.32,58.03 121.88,59.20 122.76,59.96 123.94,60.31 125.45,60.25"/>
    </edge>
    <edge id=":2478884810_1" function="internal">
        <lane id=":2478884810_1_0" index="0" allow="pedestrian delivery bicycle" speed="6.48" length="5.94" shape="117.83,64.58 118.48,63.68 118.76,62.44 118.68,60.86 118.25,58.93"/>
    </edge>
    <edge id=":2478884810_2" function="internal">
        <lane id=":2478884810_2_0" index="0" disallow="tram rail_urban rail rail_electric rail_fast ship container cable_car subway aircraft wheelchair scooter drone" speed="12.93" length="8.98" shape="117.83,64.58 119.80,62.78 121.25,61.59 122.89,60.81 125.45,60.25"/>
    </edge>
    <edge id=":2835213382_0" function="internal">
        <lane id=":2835213382_0_0" index="0" disallow="tram rail_urban rail rail_electric rail_fast ship container cable_car subway aircraft wheelchair scooter drone" speed="13.89" length="5.05" shape="123.23,105.52 120.64,109.86"/>
    </edge>
    <edge id=":2835213382_1" function="internal">
        <lane id=":2835213382_1_0" index="0" disallow="tram rail_urban rail rail_electric rail_fast ship container cable_car subway aircraft wheelchair scooter drone" speed="13.89" length="5.09" shape="117.89,108.23 120.50,103.86"/>
    </edge>
    <edge id=":320068380_0" function="internal">
        <lane id=":320068380_0_0" index="0" disallow="tram rail_urban rail rail_electric rail_fast ship container cable_car subway aircraft wheelchair scooter drone" speed="3.65" length="4.67" shape="77.44,165.89 76.02,165.64 75.33,165.07 75.37,164.17 76.15,162.96"/>
    </edge>
    <edge id=":320068412_0" function="internal">
        <lane id=":320068412_0_0" index="0" disallow="tram rail_urban rail rail_electric rail_fast ship container cable_car subway aircraft wheelchair scooter drone" speed="13.89" length="12.79" shape="136.82,88.37 133.92,90.10 131.76,92.12 129.95,94.54 128.13,97.46"/>
    </edge>
    <edge id=":320068412_1" function="internal">
        <lane id=":320068412_1_0" index="0" disallow="tram rail_urban rail rail_electric rail_fast ship container cable_car subway aircraft wheelchair scooter drone" speed="10.52" length="15.03" shape="136.82,88.37 132.50,90.07 128.67,90.78 125.32,90.50 122.45,89.23"/>
    </edge>
    <edge id=":320068412_2" function="internal">
        <lane id=":320068412_2_0" index="0" disallow="tram rail_urban rail rail_electric rail_fast ship container cable_car subway aircraft wheelchair scooter drone" speed="6.27" length="8.02" shape="125.39,95.80 125.95,94.16 125.65,92.52 124.48,90.88 122.45,89.23"/>
    </edge>
    <edge id=":320068413_0" function="internal">
        <lane id=":320068413_0_0" index="0" allow="pedestrian delivery bicycle" speed="4.87" length="4.53" shape="142.95,86.28 142.01,85.68 141.04,85.57 140.03,85.94 138.98,86.80"/>
    </edge>
    <edge id=":320068413_1" function="internal">
        <lane id=":320068413_1_0" index="0" allow="pedestrian delivery bicycle" speed="5.86" length="5.04" shape="143.73,79.40 143.48,80.59 143.62,81.74 144.17,82.85 145.11,83.93"/>
    </edge>
    <edge id=":320068413_2" function="internal">
        <lane id=":320068413_2_0" index="0" disallow="tram rail_urban rail rail_electric rail_fast ship container cable_car subway aircraft wheelchair scooter drone" speed="13.89" length="8.90" shape="143.73,79.40 142.76,81.85 141.92,83.46 140.79,84.89 138.98,86.80"/>
    </edge>
    <edge id=":320068420_0" function="internal">
        <lane id=":320068420_0_0" index="0" disallow="tram rail_urban rail rail_electric rail_fast ship container cable_car subway aircraft wheelchair scooter drone" speed="12.37" length="10.90" shape="107.95,68.89 111.05,68.58 113.28,67.94 115.28,66.72 117.68,64.72"/>
    </edge>
    <edge id=":320068420_1" function="internal">
        <lane id=":320068420_1_0" index="0" disallow="tram rail_urban rail rail_electric rail_fast ship container cable_car subway aircraft wheelchair scooter drone" speed="6.92" length="8.48" shape="113.74,77.57 112.74,75.08 111.47,73.34 109.94,72.34 108.14,72.09"/>
    </edge>
    <edge id=":320068420_2" function="internal">
        <lane id=":320068420_2_0" index="0" disallow="tram rail_urban rail rail_electric rail_fast ship container cable_car subway aircraft wheelchair scooter drone" speed="9.68" length="14.27" shape="113.74,77.57 113.15,74.00 113.60,70.67 115.11,67.57 117.68,64.72"/>
    </edge>
    <edge id=":320068761_0" function="internal">
        <lane id=":320068761_0_0" index="0" disallow="tram rail_urban rail rail_electric rail_fast ship container cable_car subway aircraft wheelchair scooter drone" speed="3.65" length="4.67" shape="25.24,31.74 24.63,30.43 24.70,29.54 25.46,29.07 26.90,29.01"/>
    </edge>
    <edge id=":525657892_0" function="internal">
        <lane id=":525657892_0_0" index="0" allow="pedestrian delivery bicycle" speed="3.65" length="4.67" shape="165.43,12.03 166.12,13.30 166.10,14.19 165.37,14.71 163.93,14.86"/>
    </edge>
    <edge id=":525657894_0" function="internal">
        <lane id=":525657894_0_0" index="0" allow="pedestrian delivery bicycle" speed="3.65" length="4.67" shape="87.68,42.44 87.09,41.13 87.17,40.24 87.93,39.77 89.37,39.72"/>
    </edge>
    <edge id=":525657895_0" function="internal">
        <lane id=":525657895_0_0" index="0" allow="pedestrian delivery bicycle" speed="4.79" length="5.39" shape="114.88,47.50 114.24,46.10 113.35,45.38 112.20,45.34 110.80,45.99"/>
    </edge>
    <edge id=":525657895_1" function="internal">
        <lane id=":525657895_1_0" index="0" allow="pedestrian delivery bicycle" speed="5.56" length="9.56" shape="114.88,47.50 114.20,44.58 113.98,42.06 114.22,39.92 114.93,38.18"/>
    </edge>
    <edge id=":525657895_2" function="internal">
        <lane id=":525657895_2_0" index="0" allow="pedestrian delivery bicycle" speed="3.65" length="4.67" shape="114.88,47.50 115.31,46.12 115.97,45.52 116.85,45.67 117.95,46.60"/>
    </edge>
    <edge id=":525657895_3" function="internal">
        <lane id=":525657895_3_0" index="0" allow="pedestrian delivery bicycle" speed="5.56" length="6.91" shape="117.66,39.84 117.25,40.97 117.16,42.47 117.40,44.35 117.95,46.60"/>
    </edge>
    <edge id=":525657895_4" function="internal">
        <lane id=":525657895_4_0" index="0" allow="pedestrian delivery bicycle" speed="5.56" length="9.37" shape="117.66,39.84 116.13,42.11 114.78,43.45 113.17,44.52 110.80,45.99"/>
    </edge>
    <edge id=":525657895_5" function="internal">
        <lane id=":525657895_5_0" index="0" allow="pedestrian delivery bicycle" speed="3.65" length="4.67" shape="117.66,39.84 116.36,40.45 115.47,40.38 114.99,39.62 114.93,38.18"/>
    </edge>
    <edge id=":525657895_6" function="internal">
        <lane id=":525657895_6_0" index="0" allow="pedestrian delivery bicycle" speed="5.56" length="7.92" shape="109.06,43.30 111.07,42.08 112.46,41.19 113.62,40.09 114.93,38.18"/>
    </edge>
    <edge id=":525657895_7" function="internal">
        <lane id=":525657895_7_0" index="0" allow="pedestrian delivery bicycle" speed="5.56" length="11.72" shape="109.06,43.30 112.11,41.89 114.61,41.97 116.56,43.54 117.95,46.60"/>
    </edge>
    <edge id=":525657895_8" function="internal">
        <lane id=":525657895_8_0" index="0" allow="pedestrian delivery bicycle" speed="3.65" length="4.67" shape="109.06,43.30 110.50,43.32 111.27,43.77 111.37,44.66 110.80,45.99"/>
    </edge>
    <edge id=":525662762_0" function="internal">
        <lane id=":525662762_0_0" index="0" allow="pedestrian delivery bicycle" speed="5.56" length="9.56" shape="158.15,96.81 150.10,91.65"/>
    </edge>
    <edge id=":525662762_1" function="internal">
        <lane id=":525662762_1_0" index="0" allow="pedestrian delivery bicycle" speed="5.56" length="3.39" shape="158.15,96.81 155.98,95.00 155.73,94.50"/>
    </edge>
    <edge id=":525662762_2" function="internal">
        <lane id=":525662762_2_0" index="0" allow="pedestrian delivery bicycle" speed="3.65" length="1.44" shape="158.15,96.81 157.55,95.50"/>
    </edge>
    <edge id=":525662762_9" function="internal">
        <lane id=":525662762_9_0" index="0" allow="pedestrian delivery bicycle" speed="5.56" length="6.89" shape="155.73,94.50 154.93,92.94 155.00,90.62 156.19,88.06"/>
    </edge>
    <edge id=":525662762_10" function="internal">
        <lane id=":525662762_10_0" index="0" allow="pedestrian delivery bicycle" speed="3.65" length="3.23" shape="157.55,95.50 157.63,94.61 158.39,94.13 159.83,94.08"/>
    </edge>
    <edge id=":525662762_3" function="internal">
        <lane id=":525662762_3_0" index="0" allow="pedestrian delivery bicycle" speed="5.01" length="5.03" shape="158.87,89.80 158.29,91.06 158.26,92.19 158.77,93.20 159.83,94.08"/>
    </edge>
    <edge id=":525662762_4" function="internal">
        <lane id=":525662762_4_0" index="0" allow="pedestrian delivery bicycle" speed="5.56" length="10.25" shape="158.87,89.80 157.02,91.93 154.94,92.95 152.63,92.85 150.10,91.65"/>
    </edge>
    <edge id=":525662762_5" function="internal">
        <lane id=":525662762_5_0" index="0" allow="pedestrian delivery bicycle" speed="3.65" length="4.67" shape="158.87,89.80 157.55,90.37 156.66,90.27 156.21,89.50 156.19,88.06"/>
    </edge>
    <edge id=":525662762_6" function="internal">
        <lane id=":525662762_6_0" index="0" allow="pedestrian delivery bicycle" speed="5.04" length="5.05" shape="151.87,88.99 153.11,89.57 154.25,89.62 155.27,89.11 156.19,88.06"/>
    </edge>
    <edge id=":525662762_7" function="internal">
        <lane id=":525662762_7_0" index="0" allow="pedestrian delivery bicycle" speed="5.56" length="9.45" shape="151.87,88.99 159.83,94.08"/>
    </edge>
    <edge id=":525662762_8" function="internal">
        <lane id=":525662762_8_0" index="0" allow="pedestrian delivery bicycle" speed="3.65" length="1.44" shape="151.87,88.99 152.43,90.32"/>
    </edge>
    <edge id=":525662762_11" function="internal">
        <lane id=":525662762_11_0" index="0" allow="pedestrian delivery bicycle" speed="3.65" length="3.23" shape="152.43,90.32 152.32,91.20 151.54,91.65 150.10,91.65"/>
    </edge>
    <edge id=":525662774_0" function="internal">
        <lane id=":525662774_0_0" index="0" allow="pedestrian delivery bicycle" speed="3.65" length="4.67" shape="179.69,161.09 180.32,162.39 180.25,163.28 179.50,163.76 178.06,163.84"/>
    </edge>
    <edge id=":525662782_0" function="internal">
        <lane id=":525662782_0_0" index="0" allow="pedestrian delivery bicycle" speed="3.65" length="4.67" shape="226.07,56.04 226.70,57.33 226.64,58.23 225.89,58.71 224.45,58.79"/>
    </edge>

    <edge id="-29098165#0" from="2835213382" to="320068380" priority="3" type="highway.residential" shape="120.61,106.77 102.80,136.91 92.25,155.51 86.27,160.24 76.79,164.42">
        <lane id="-29098165#0_0" index="0" disallow="tram rail_urban rail rail_electric rail_fast ship container cable_car subway aircraft wheelchair scooter drone" speed="13.89" length="72.74" shape="120.64,109.86 104.19,137.71 93.49,156.57 87.10,161.63 77.44,165.89"/>
    </edge>
    <edge id="-29098165#1" from="320068412" to="2835213382" priority="3" type="highway.residential">
        <lane id="-29098165#1_0" index="0" disallow="tram rail_urban rail rail_electric rail_fast ship container cable_car subway aircraft wheelchair scooter drone" speed="13.89" length="9.44" shape="128.13,97.46 123.23,105.52"/>
    </edge>
    <edge id="-29098185" from="320068761" to="320068420" priority="3" type="highway.residential" shape="26.07,30.37 33.19,34.72 97.28,71.14 114.24,70.12">
        <lane id="-29098185_0" index="0" disallow="tram rail_urban rail rail_electric rail_fast ship container cable_car subway aircraft wheelchair scooter drone" speed="13.89" length="91.84" shape="26.90,29.01 34.00,33.34 97.66,69.51 107.95,68.89"/>
    </edge>
    <edge id="-42206619#0" from="525657895" to="2478884810" priority="1" type="highway.service">
        <lane id="-42206619#0_0" index="0" allow="pedestrian delivery bicycle" speed="5.56" length="11.92" shape="117.95,46.60 121.32,58.03"/>
    </edge>
    <edge id="-42206619#1" from="525657894" to="525657895" priority="1" type="highway.service" shape="88.53,41.08 102.24,49.61 114.78,41.50">
        <lane id="-42206619#1_0" index="0" allow="pedestrian delivery bicycle" speed="5.56" length="23.27" shape="89.37,39.72 102.23,47.72 109.06,43.30"/>
    </edge>
    <edge id="-42206620" from="525657892" to="525657895" priority="1" type="highway.service" shape="164.68,13.44 139.39,0.00 136.60,5.59 114.78,41.50">
        <lane id="-42206620_0" index="0" allow="pedestrian delivery bicycle" speed="5.56" length="70.85" shape="163.93,14.86 140.09,2.18 138.00,6.36 117.66,39.84"/>
    </edge>
    <edge id="-42206765#0" from="11585151546" to="320068413" priority="1" type="highway.service">
        <lane id="-42206765#0_0" index="0" allow="pedestrian delivery bicycle" speed="5.56" length="0.20" shape="143.10,86.42 142.95,86.28"/>
    </edge>
    <edge id="-42206765#1" from="525662762" to="11585151546" priority="1" type="highway.service">
        <lane id="-42206765#1_0" index="0" allow="pedestrian delivery bicycle" speed="5.56" length="3.50" shape="150.10,91.65 147.19,89.71"/>
    </edge>
    <edge id="-42206765#2" from="525662774" to="525662762" priority="1" type="highway.service" shape="178.88,162.46 171.37,158.01 151.10,145.82 174.49,105.00 154.93,92.94">
        <lane id="-42206765#2_0" index="0" allow="pedestrian delivery bicycle" speed="5.56" length="97.68" shape="178.06,163.84 170.55,159.39 148.93,146.39 172.33,105.55 158.15,96.81"/>
    </edge>
    <edge id="-42206767" from="525662782" to="525662762" priority="1" type="highway.service" shape="225.26,57.42 215.95,51.94 214.91,53.72 202.74,74.28 175.73,58.48 164.09,78.85 154.93,92.94">
        <lane id="-42206767_0" index="0" allow="pedestrian delivery bicycle" speed="5.56" length="100.39" shape="224.45,58.79 216.52,54.13 216.28,54.53 203.31,76.46 176.32,60.68 165.46,79.68 158.87,89.80"/>
    </edge>
    <edge id="1246152070#0" from="11585123289" to="11585123299" priority="1" type="highway.footway" spreadType="center" shape="87.32,137.88 98.62,119.31 104.17,110.06">
        <lane id="1246152070#0_0" index="0" allow="pedestrian" speed="2.78" length="30.02" width="2.00" shape="87.32,137.88 98.62,119.31 102.88,112.21"/>
    </edge>
    <edge id="1246152070#1" from="11585123299" to="11585123293" priority="1" type="highway.footway" spreadType="center" shape="104.17,110.06 107.78,103.76 106.18,96.54">
        <lane id="1246152070#1_0" index="0" allow="pedestrian" speed="2.78" length="9.66" width="2.00" shape="105.42,107.88 107.78,103.76 106.72,98.96"/>
    </edge>
    <edge id="1246152070#2" from="11585123293" to="11585123279" priority="1" type="highway.footway" spreadType="center" shape="106.18,96.54 103.56,88.79 98.14,85.37">
        <lane id="1246152070#2_0" index="0" allow="pedestrian" speed="2.78" length="9.62" width="2.00" shape="105.41,94.25 103.56,88.79 100.30,86.73"/>
    </edge>
    <edge id="1246152070#3" from="11585123279" to="11585123306" priority="1" type="highway.footway" spreadType="center">
        <lane id="1246152070#3_0" index="0" allow="pedestrian" speed="2.78" length="5.92" width="2.00" shape="95.97,84.09 90.87,81.08"/>
    </edge>
    <edge id="1246152070#4" from="11585123306" to="11585123280" priority="1" type="highway.footway" spreadType="center" shape="88.73,79.82 71.81,69.64 54.93,59.62 45.77,54.19 39.67,50.61 32.53,52.41 24.52,54.41 21.01,60.31 15.54,69.51 3.48,89.77">
        <lane id="1246152070#4_0" index="0" allow="pedestrian" speed="2.78" length="108.76" width="2.00" shape="86.57,78.52 71.81,69.64 54.93,59.62 45.77,54.19 39.67,50.61 32.53,52.41 24.52,54.41 21.01,60.31 15.54,69.51 4.80,87.56"/>
    </edge>
    <edge id="1246152070#5" from="11585123280" to="11584965616" priority="1" type="highway.footway" spreadType="center">
        <lane id="1246152070#5_0" index="0" allow="pedestrian" speed="2.78" length="0.20" width="2.00" shape="2.71,91.06 2.61,91.23"/>
    </edge>
    <edge id="1246152071#0" from="11585123280" to="11585123305" priority="1" type="highway.footway" spreadType="center" shape="3.48,89.77 0.77,87.88 0.00,85.58 0.11,83.67 10.47,66.65 15.85,57.40 25.71,40.98 26.82,40.06 28.50,39.05 30.59,38.90 32.80,39.23 48.91,48.86 58.13,54.28 74.98,64.30 91.86,74.33">
        <lane id="1246152071#0_0" index="0" allow="pedestrian" speed="2.78" length="128.80" width="2.00" shape="1.37,88.29 0.77,87.88 0.00,85.58 0.11,83.67 10.47,66.65 15.85,57.40 25.71,40.98 26.82,40.06 28.50,39.05 30.59,38.90 32.80,39.23 48.91,48.86 58.13,54.28 74.98,64.30 89.73,73.06"/>
    </edge>
    <edge id="1246152071#1" from="11585123305" to="11585123292" priority="1" type="highway.footway" spreadType="center">
        <lane id="1246152071#1_0" index="0" allow="pedestrian" speed="2.78" length="5.90" width="2.00" shape="94.03,75.61 99.10,78.62"/>
    </edge>
    <edge id="1246152071#2" from="11585123292" to="11585123294" priority="1" type="highway.footway" spreadType="center" shape="101.23,79.88 111.85,86.09 113.73,87.46 114.92,89.59 115.94,94.15">
        <lane id="1246152071#2_0" index="0" allow="pedestrian" speed="2.78" length="16.75" width="2.00" shape="103.40,81.15 111.85,86.09 113.73,87.46 114.92,89.59 115.40,91.73"/>
    </edge>
    <edge id="1246152071#3" from="11585123294" to="11585151539" priority="1" type="highway.footway" spreadType="center" shape="115.94,94.15 117.14,100.12 115.10,103.60">
        <lane id="1246152071#3_0" index="0" allow="pedestrian" speed="2.78" length="5.06" width="2.00" shape="116.44,96.65 117.14,100.12 116.37,101.43"/>
    </edge>
    <edge id="1246152071#4" from="11585151539" to="11585123298" priority="1" type="highway.footway" spreadType="center">
        <lane id="1246152071#4_0" index="0" allow="pedestrian" speed="2.78" length="6.16" width="2.00" shape="113.87,105.78 110.83,111.14"/>
    </edge>
    <edge id="1246152071#5" from="11585123298" to="11585123288" priority="1" type="highway.footway" spreadType="center" shape="109.58,113.34 103.89,122.69 92.78,141.00">
        <lane id="1246152071#5_0" index="0" allow="pedestrian" speed="2.78" length="29.87" width="2.00" shape="108.28,115.48 103.89,122.69 92.78,141.00"/>
    </edge>
    <edge id="1246152073" from="11585123279" to="11585123292" priority="1" type="highway.footway" spreadType="center">
        <lane id="1246152073_0" index="0" allow="pedestrian" speed="2.78" length="1.27" width="2.00" shape="99.38,83.17 100.00,82.07"/>
    </edge>
    <edge id="1246152074" from="11585123293" to="11585123294" priority="1" type="highway.footway" spreadType="center">
        <lane id="1246152074_0" index="0" allow="pedestrian" speed="2.78" length="5.03" width="2.00" shape="108.59,95.95 113.47,94.76"/>
    </edge>
    <edge id="1246152076#0" from="11585123298" to="11585123299" priority="1" type="highway.footway" spreadType="center">
        <lane id="1246152076#0_0" index="0" allow="pedestrian" speed="2.78" length="1.29" width="2.00" shape="107.42,112.03 106.32,111.36"/>
    </edge>
    <edge id="1246152076#1" from="11585123299" to="11585123300" priority="1" type="highway.footway" spreadType="center">
        <lane id="1246152076#1_0" index="0" allow="pedestrian" speed="2.78" length="2.86" width="2.00" shape="102.01,108.79 99.54,107.33"/>
    </edge>
    <edge id="1246152077#0" from="11585123301" to="11585123302" priority="1" type="highway.footway" spreadType="center">
        <lane id="1246152077#0_0" index="0" allow="pedestrian" speed="2.78" length="0.72" width="2.00" shape="91.64,102.89 91.01,102.54"/>
    </edge>
    <edge id="1246152077#1" from="11585123302" to="2958905617" priority="1" type="highway.footway" spreadType="center">
        <lane id="1246152077#1_0" index="0" allow="pedestrian" speed="2.78" length="7.06" width="2.00" shape="86.83,101.61 79.85,102.66"/>
    </edge>
    <edge id="1246152078" from="11585123300" to="11585123301" priority="1" type="highway.footway" spreadType="center">
        <lane id="1246152078_0" index="0" allow="pedestrian" speed="2.78" length="8.50" width="2.00" shape="99.30,107.19 91.89,103.03"/>
    </edge>
    <edge id="1246152079" from="11585123303" to="11585123304" priority="1" type="highway.footway" spreadType="center">
        <lane id="1246152079_0" index="0" allow="pedestrian" speed="2.78" length="8.33" width="2.00" shape="95.17,90.63 90.91,97.79"/>
    </edge>
    <edge id="1246152080" from="11585123279" to="11585123303" priority="1" type="highway.footway" spreadType="center">
        <lane id="1246152080_0" index="0" allow="pedestrian" speed="2.78" length="3.22" width="2.00" shape="96.89,87.59 95.31,90.40"/>
    </edge>
    <edge id="1246152081" from="11585123304" to="11585123302" priority="1" type="highway.footway" spreadType="center">
        <lane id="1246152081_0" index="0" allow="pedestrian" speed="2.78" length="1.29" width="2.00" shape="90.76,98.04 90.09,99.14"/>
    </edge>
    <edge id="1246152082" from="11585123305" to="11585123306" priority="1" type="highway.footway" spreadType="center">
        <lane id="1246152082_0" index="0" allow="pedestrian" speed="2.78" length="1.28" width="2.00" shape="90.61,76.52 89.98,77.63"/>
    </edge>
    <edge id="1246158659#0" from="11585151540" to="11585151546" priority="1" type="highway.footway" spreadType="center" shape="124.46,109.28 128.19,102.91 131.13,97.98 133.04,95.95 135.60,94.58 140.99,92.11 144.13,89.53 146.36,87.24">
        <lane id="1246158659#0_0" index="0" allow="pedestrian" speed="2.78" length="26.22" width="2.00" shape="124.99,108.37 128.19,102.91 131.13,97.98 133.04,95.95 135.60,94.58 140.99,92.11 142.95,90.51"/>
    </edge>
    <edge id="1246158659#1" from="11585151546" to="11585151548" priority="1" type="highway.footway" spreadType="center" shape="146.36,87.24 149.59,80.50 150.07,78.98">
        <lane id="1246158659#1_0" index="0" allow="pedestrian" speed="2.78" length="3.92" width="2.00" shape="148.58,82.60 149.59,80.50 150.07,78.98"/>
    </edge>
    <edge id="1246158660#0" from="11585151549" to="2835213382" priority="1" type="highway.footway" spreadType="center">
        <lane id="1246158660#0_0" index="0" allow="pedestrian" speed="2.78" length="0.20" width="2.00" shape="116.94,104.65 117.11,104.75"/>
    </edge>
    <edge id="1246158660#1" from="2835213382" to="11585151540" priority="1" type="highway.footway" spreadType="center">
        <lane id="1246158660#1_0" index="0" allow="pedestrian" speed="2.78" length="0.20" width="2.00" shape="124.00,108.98 124.17,109.09"/>
    </edge>
    <edge id="1246158661" from="11585151539" to="11585151549" priority="1" type="highway.footway" spreadType="center">
        <lane id="1246158661_0" index="0" allow="pedestrian" speed="2.78" length="0.29" width="2.00" shape="117.27,104.85 117.52,104.99"/>
    </edge>
    <edge id="1246158662" from="11585151550" to="525662762" priority="1" type="highway.footway" spreadType="center">
        <lane id="1246158662_0" index="0" allow="pedestrian" speed="2.78" length="12.46" width="2.00" shape="145.97,107.57 152.47,96.95"/>
    </edge>
    <edge id="29098165#0" from="320068380" to="2835213382" priority="3" type="highway.residential" shape="76.79,164.42 86.27,160.24 92.25,155.51 102.80,136.91 120.61,106.77">
        <lane id="29098165#0_0" index="0" disallow="tram rail_urban rail rail_electric rail_fast ship container cable_car subway aircraft wheelchair scooter drone" speed="13.89" length="70.73" shape="76.15,162.96 85.43,158.86 91.01,154.45 101.42,136.11 117.89,108.23"/>
    </edge>
    <edge id="29098165#1" from="2835213382" to="320068412" priority="3" type="highway.residential">
        <lane id="29098165#1_0" index="0" disallow="tram rail_urban rail rail_electric rail_fast ship container cable_car subway aircraft wheelchair scooter drone" speed="13.89" length="9.44" shape="120.50,103.86 125.39,95.80"/>
    </edge>
    <edge id="29098185" from="320068420" to="320068761" priority="3" type="highway.residential" shape="114.24,70.12 97.28,71.14 33.19,34.72 26.07,30.37">
        <lane id="29098185_0" index="0" disallow="tram rail_urban rail rail_electric rail_fast ship container cable_car subway aircraft wheelchair scooter drone" speed="13.89" length="93.84" shape="108.14,72.09 96.91,72.76 32.38,36.09 25.24,31.74"/>
    </edge>
    <edge id="32677926#0" from="320068412" to="320068420" priority="3" type="highway.residential" spreadType="center" shape="130.40,90.63 122.64,89.36 118.16,86.36 115.26,82.55 113.46,76.65 114.24,70.12">
        <lane id="32677926#0_0" index="0" disallow="tram rail_urban rail rail_electric rail_fast ship container cable_car subway aircraft wheelchair scooter drone" speed="13.89" length="15.16" shape="122.45,89.23 118.16,86.36 115.26,82.55 113.74,77.57"/>
    </edge>
    <edge id="32677926#1" from="320068420" to="2478884810" priority="3" type="highway.residential" spreadType="center" shape="114.24,70.12 116.76,65.53 120.80,61.95">
        <lane id="32677926#1_0" index="0" disallow="tram rail_urban rail rail_electric rail_fast ship container cable_car subway aircraft wheelchair scooter drone" speed="13.89" length="0.20" shape="117.68,64.72 117.83,64.58"/>
    </edge>
    <edge id="32677926#2" from="2478884810" to="320068413" priority="3" type="highway.residential" spreadType="center" shape="120.80,61.95 123.87,60.50 129.21,59.64 133.25,60.25 138.11,62.61 141.02,65.35 144.31,72.53 144.28,77.93 142.21,83.43">
        <lane id="32677926#2_0" index="0" disallow="tram rail_urban rail rail_electric rail_fast ship container cable_car subway aircraft wheelchair scooter drone" speed="13.89" length="32.17" shape="125.45,60.25 129.21,59.64 133.25,60.25 138.11,62.61 141.02,65.35 144.31,72.53 144.28,77.93 143.73,79.40"/>
    </edge>
    <edge id="32677926#3" from="320068413" to="320068412" priority="3" type="highway.residential" spreadType="center" shape="142.21,83.43 138.05,87.77 133.18,90.12 130.40,90.63">
        <lane id="32677926#3_0" index="0" disallow="tram rail_urban rail rail_electric rail_fast ship container cable_car subway aircraft wheelchair scooter drone" speed="13.89" length="2.72" shape="138.98,86.80 138.05,87.77 136.82,88.37"/>
    </edge>
    <edge id="42206619#0" from="2478884810" to="525657895" priority="1" type="highway.service">
        <lane id="42206619#0_0" index="0" allow="pedestrian delivery bicycle" speed="5.56" length="11.92" shape="118.25,58.93 114.88,47.50"/>
    </edge>
    <edge id="42206619#1" from="525657895" to="525657894" priority="1" type="highway.service" shape="114.78,41.50 102.24,49.61 88.53,41.08">
        <lane id="42206619#1_0" index="0" allow="pedestrian delivery bicycle" speed="5.56" length="27.33" shape="110.80,45.99 102.26,51.51 87.68,42.44"/>
    </edge>
    <edge id="42206620" from="525657895" to="525657892" priority="1" type="highway.service" shape="114.78,41.50 136.60,5.59 139.39,0.00 164.68,13.44">