<?xml version="1.0" encoding="UTF-8"?>

<!-- generated on 2024-09-03 01:37:10 by Eclipse SUMO netconvert Version 1.20.0
<configuration xmlns:xsi="http://www.w3.org/2001/XMLSchema-instance" xsi:noNamespaceSchemaLocation="http://sumo.dlr.de/xsd/netconvertConfiguration.xsd">

    <input>
        <osm-files value="train_files/intersection/easy/osm_files/map(78).osm"/>
    </input>

    <output>
        <output-file value="train_files/intersection/easy/outputs/map(78)_dict/map(78)/map(78).net.xml"/>
    </output>

    <projection>
        <proj.utm value="true"/>
    </projection>

    <building_defaults>
        <default.junctions.keep-clear value="false"/>
    </building_defaults>

</configuration>
-->

<net version="1.20" junctionCornerDetail="5" limitTurnSpeed="5.50" xmlns:xsi="http://www.w3.org/2001/XMLSchema-instance" xsi:noNamespaceSchemaLocation="http://sumo.dlr.de/xsd/net_file.xsd">

    <location netOffset="-585398.52,-5625851.23" convBoundary="0.00,0.00,276.00,248.18" origBoundary="4.211338,50.778120,4.215248,50.780355" projParameter="+proj=utm +zone=31 +ellps=WGS84 +datum=WGS84 +units=m +no_defs"/>

    <type id="highway.residential" priority="3" numLanes="1" speed="13.89" disallow="tram rail_urban rail rail_electric rail_fast ship container cable_car subway aircraft wheelchair scooter drone" oneway="0"/>
    <type id="highway.service" priority="1" numLanes="1" speed="5.56" allow="pedestrian delivery bicycle" oneway="0"/>

    <edge id=":11981072910_0" function="internal">
        <lane id=":11981072910_0_0" index="0" disallow="tram rail_urban rail rail_electric rail_fast ship container cable_car subway aircraft wheelchair scooter drone" speed="3.65" length="4.67" shape="276.77,228.43 277.44,229.71 277.40,230.61 276.66,231.12 275.23,231.24"/>
    </edge>
    <edge id=":266233295_0" function="internal">
        <lane id=":266233295_0_0" index="0" disallow="tram rail_urban rail rail_electric rail_fast ship container cable_car subway aircraft wheelchair scooter drone" speed="3.65" length="4.67" shape="1.53,248.65 0.42,249.57 -0.46,249.72 -1.11,249.10 -1.53,247.72"/>
    </edge>
    <edge id=":267330312_0" function="internal">
        <lane id=":267330312_0_0" index="0" disallow="tram rail_urban rail rail_electric rail_fast ship container cable_car subway aircraft wheelchair scooter drone" speed="6.85" length="8.17" shape="29.61,176.78 27.35,176.85 25.52,177.52 24.12,178.77 23.15,180.62"/>
    </edge>
    <edge id=":267330312_1" function="internal">
        <lane id=":267330312_1_0" index="0" disallow="tram rail_urban rail rail_electric rail_fast ship container cable_car subway aircraft wheelchair scooter drone" speed="6.87" length="11.23" shape="29.61,176.78 26.16,176.08 23.89,174.70 22.81,172.65 22.91,169.91"/>
    </edge>
    <edge id=":267330312_2" function="internal">
        <lane id=":267330312_2_0" index="0" disallow="tram rail_urban rail rail_electric rail_fast ship container cable_car subway aircraft wheelchair scooter drone" speed="13.89" length="10.42" shape="26.03,170.61 25.35,173.57 24.80,175.68 24.15,177.75 23.15,180.62"/>
    </edge>
    <edge id=":267330312_3" function="internal">
        <lane id=":267330312_3_0" index="0" disallow="tram rail_urban rail rail_electric rail_fast ship container cable_car subway aircraft wheelchair scooter drone" speed="3.65" length="4.67" shape="26.03,170.61 24.99,171.61 24.12,171.83 23.42,171.26 22.91,169.91"/>
    </edge>
    <edge id=":267330312_4" function="internal">
        <lane id=":267330312_4_0" index="0" disallow="tram rail_urban rail rail_electric rail_fast ship container cable_car subway aircraft wheelchair scooter drone" speed="13.89" length="10.03" shape="20.13,179.54 21.12,176.74 21.74,174.79 22.25,172.81 22.91,169.91"/>
    </edge>
    <edge id=":267330312_5" function="internal">
        <lane id=":267330312_5_0" index="0" disallow="tram rail_urban rail rail_electric rail_fast ship container cable_car subway aircraft wheelchair scooter drone" speed="3.65" length="4.67" shape="20.13,179.54 21.29,178.68 22.17,178.57 22.79,179.22 23.15,180.62"/>
    </edge>
    <edge id=":267330313_0" function="internal">
        <lane id=":267330313_0_0" index="0" disallow="tram rail_urban rail rail_electric rail_fast ship container cable_car subway aircraft wheelchair scooter drone" speed="7.27" length="8.16" shape="28.75,155.58 28.90,157.40 29.69,159.05 31.13,160.53 33.20,161.84"/>
    </edge>
    <edge id=":267330313_1" function="internal">
        <lane id=":267330313_1_0" index="0" disallow="tram rail_urban rail rail_electric rail_fast ship container cable_car subway aircraft wheelchair scooter drone" speed="13.89" length="10.01" shape="28.75,155.58 28.48,158.54 28.22,160.56 27.83,162.55 27.19,165.45"/>
    </edge>
    <edge id=":267330313_2" function="internal">
        <lane id=":267330313_2_0" index="0" disallow="tram rail_urban rail rail_electric rail_fast ship container cable_car subway aircraft wheelchair scooter drone" speed="3.65" length="1.44" shape="28.75,155.58 27.85,156.71"/>
    </edge>
    <edge id=":267330313_6" function="internal">
        <lane id=":267330313_6_0" index="0" disallow="tram rail_urban rail rail_electric rail_fast ship container cable_car subway aircraft wheelchair scooter drone" speed="3.65" length="3.23" shape="27.85,156.71 27.02,157.04 26.26,156.57 25.57,155.30"/>
    </edge>
    <edge id=":267330313_3" function="internal">
        <lane id=":267330313_3_0" index="0" disallow="tram rail_urban rail rail_electric rail_fast ship container cable_car subway aircraft wheelchair scooter drone" speed="13.89" length="9.58" shape="24.07,164.75 24.68,161.97 25.05,160.06 25.30,158.13 25.57,155.30"/>
    </edge>
    <edge id=":267330313_4" function="internal">
        <lane id=":267330313_4_0" index="0" disallow="tram rail_urban rail rail_electric rail_fast ship container cable_car subway aircraft wheelchair scooter drone" speed="6.74" length="3.07" shape="24.07,164.75 25.21,162.02 25.29,161.96"/>
    </edge>
    <edge id=":267330313_5" function="internal">
        <lane id=":267330313_5_0" index="0" disallow="tram rail_urban rail rail_electric rail_fast ship container cable_car subway aircraft wheelchair scooter drone" speed="3.65" length="1.44" shape="24.07,164.75 25.11,163.75"/>
    </edge>
    <edge id=":267330313_7" function="internal">
        <lane id=":267330313_7_0" index="0" disallow="tram rail_urban rail rail_electric rail_fast ship container cable_car subway aircraft wheelchair scooter drone" speed="6.74" length="8.57" shape="25.29,161.96 27.11,160.63 29.77,160.57 33.20,161.84"/>
    </edge>
    <edge id=":267330313_8" function="internal">
        <lane id=":267330313_8_0" index="0" disallow="tram rail_urban rail rail_electric rail_fast ship container cable_car subway aircraft wheelchair scooter drone" speed="3.65" length="3.23" shape="25.11,163.75 25.98,163.54 26.67,164.11 27.19,165.45"/>
    </edge>
    <edge id=":267330338_0" function="internal">
        <lane id=":267330338_0_0" index="0" disallow="tram rail_urban rail rail_electric rail_fast ship container cable_car subway aircraft wheelchair scooter drone" speed="13.30" length="4.72" shape="47.64,175.00 46.26,174.73 45.30,174.60 44.34,174.64 42.98,174.92"/>
    </edge>
    <edge id=":267330338_1" function="internal">
        <lane id=":267330338_1_0" index="0" disallow="tram rail_urban rail rail_electric rail_fast ship container cable_car subway aircraft wheelchair scooter drone" speed="3.65" length="1.44" shape="47.64,175.00 46.60,174.00"/>
    </edge>
    <edge id=":267330338_4" function="internal">
        <lane id=":267330338_4_0" index="0" disallow="tram rail_urban rail rail_electric rail_fast ship container cable_car subway aircraft wheelchair scooter drone" speed="3.65" length="3.23" shape="46.60,174.00 46.35,173.14 46.88,172.42 48.20,171.85"/>
    </edge>
    <edge id=":267330338_2" function="internal">
        <lane id=":267330338_2_0" index="0" disallow="tram rail_urban rail rail_electric rail_fast ship container cable_car subway aircraft wheelchair scooter drone" speed="8.96" length="3.83" shape="44.82,170.23 45.69,170.96 46.35,171.38 47.10,171.63 48.20,171.85"/>
    </edge>
    <edge id=":267330338_3" function="internal">
        <lane id=":267330338_3_0" index="0" disallow="tram rail_urban rail rail_electric rail_fast ship container cable_car subway aircraft wheelchair scooter drone" speed="4.99" length="2.73" shape="44.82,170.23 46.14,171.77 46.21,172.47"/>
    </edge>
    <edge id=":267330338_5" function="internal">
        <lane id=":267330338_5_0" index="0" disallow="tram rail_urban rail rail_electric rail_fast ship container cable_car subway aircraft wheelchair scooter drone" speed="4.99" length="4.46" shape="46.21,172.47 46.27,173.06 45.22,174.11 42.98,174.92"/>
    </edge>
    <edge id=":267334480_0" function="internal">
        <lane id=":267334480_0_0" index="0" disallow="tram rail_urban rail rail_electric rail_fast ship container cable_car subway aircraft wheelchair scooter drone" speed="3.65" length="4.67" shape="25.66,0.26 26.25,-1.05 26.98,-1.58 27.83,-1.31 28.82,-0.26"/>
    </edge>
    <edge id=":4645439607_0" function="internal">
        <lane id=":4645439607_0_0" index="0" allow="pedestrian delivery bicycle" speed="3.65" length="4.67" shape="39.58,231.68 38.92,232.97 38.17,233.46 37.33,233.15 36.40,232.05"/>
    </edge>
    <edge id=":4645439609_0" function="internal">
        <lane id=":4645439609_0_0" index="0" allow="pedestrian delivery bicycle" speed="5.82" length="5.23" shape="32.94,180.56 32.42,178.99 31.72,177.84 30.85,177.10 29.81,176.79"/>
    </edge>
    <edge id=":4645439609_1" function="internal">
        <lane id=":4645439609_1_0" index="0" allow="pedestrian delivery bicycle" speed="3.65" length="4.67" shape="32.94,180.56 33.43,179.20 34.11,178.62 34.98,178.82 36.05,179.79"/>
    </edge>
    <edge id=":4645439609_2" function="internal">
        <lane id=":4645439609_2_0" index="0" allow="pedestrian delivery bicycle" speed="5.03" length="5.01" shape="38.32,176.04 37.05,176.55 36.24,177.34 35.91,178.42 36.05,179.79"/>
    </edge>
    <edge id=":4645439609_3" function="internal">
        <lane id=":4645439609_3_0" index="0" disallow="tram rail_urban rail rail_electric rail_fast ship container cable_car subway aircraft wheelchair scooter drone" speed="19.44" length="8.62" shape="38.32,176.04 35.84,176.63 34.10,176.93 32.35,176.98 29.81,176.79"/>
    </edge>

    <edge id="-257242858" from="11981072910" to="267330338" priority="3" type="highway.residential" shape="276.00,229.83 269.79,226.41 237.56,212.86 204.18,202.22 181.40,195.80 159.77,191.53 130.87,186.98 78.58,178.87 48.65,173.55">
        <lane id="-257242858_0" index="0" disallow="tram rail_urban rail rail_electric rail_fast ship container cable_car subway aircraft wheelchair scooter drone" speed="19.44" length="235.59" shape="275.23,231.24 269.09,227.85 237.00,214.37 203.72,203.75 181.03,197.36 159.49,193.11 130.62,188.56 78.32,180.45 47.64,175.00"/>
    </edge>
    <edge id="-362938959" from="267330313" to="267330312" priority="3" type="highway.residential">
        <lane id="-362938959_0" index="0" disallow="tram rail_urban rail rail_electric rail_fast ship container cable_car subway aircraft wheelchair scooter drone" speed="13.89" length="5.29" shape="27.19,165.45 26.03,170.61"/>
    </edge>
    <edge id="-363122002" from="267330313" to="267334480" priority="3" type="highway.residential" shape="26.74,160.12 32.11,99.58 34.38,60.13 34.16,47.94 33.91,43.14 32.40,31.43 27.24,0.00">
        <lane id="-363122002_0" index="0" disallow="tram rail_urban rail rail_electric rail_fast ship container cable_car subway aircraft wheelchair scooter drone" speed="13.89" length="155.85" shape="25.57,155.30 30.51,99.46 32.78,60.10 32.56,48.00 32.31,43.29 30.82,31.66 25.66,0.26"/>
    </edge>
    <edge id="-470341053" from="4645439607" to="4645439609" priority="1" type="highway.service" shape="37.99,231.87 36.99,223.37 35.01,182.25 33.74,177.14">
        <lane id="-470341053_0" index="0" allow="pedestrian delivery bicycle" speed="5.56" length="51.66" shape="36.40,232.05 35.40,223.50 33.42,182.48 32.94,180.56"/>
    </edge>
    <edge id="-61341247" from="267330312" to="266233295" priority="3" type="highway.residential" shape="23.34,175.30 14.75,199.45 0.00,248.18">
        <lane id="-61341247_0" index="0" disallow="tram rail_urban rail rail_electric rail_fast ship container cable_car subway aircraft wheelchair scooter drone" speed="13.89" length="71.40" shape="23.15,180.62 16.27,199.95 1.53,248.65"/>
    </edge>
    <edge id="24591357" from="267330313" to="267330338" priority="3" type="highway.residential" spreadType="center" shape="26.74,160.12 32.23,161.35 37.93,164.25 48.65,173.55">
        <lane id="24591357_0" index="0" disallow="tram rail_urban rail rail_electric rail_fast ship container cable_car subway aircraft wheelchair scooter drone" speed="19.44" length="14.44" shape="33.20,161.84 37.93,164.25 44.82,170.23"/>
    </edge>
    <edge id="257242858" from="267330338" to="11981072910" priority="3" type="highway.residential" shape="48.65,173.55 78.58,178.87 130.87,186.98 159.77,191.53 181.40,195.80 204.18,202.22 237.56,212.86 269.79,226.41 276.00,229.83">
        <lane id="257242858_0" index="0" disallow="tram rail_urban rail rail_electric rail_fast ship container cable_car subway aircraft wheelchair scooter drone" speed="19.44" length="236.64" shape="48.20,171.85 78.85,177.29 131.11,185.40 160.05,189.96 181.77,194.25 204.64,200.68 238.11,211.36 270.49,224.97 276.77,228.43"/>
    </edge>
    <edge id="257376312#0" from="267330338" to="4645439609" priority="3" type="highway.residential" spreadType="center">
        <lane id="257376312#0_0" index="0" disallow="tram rail_urban rail rail_electric rail_fast ship container cable_car subway aircraft wheelchair scooter drone" speed="19.44" length="4.79" shape="42.98,174.92 38.32,176.04"/>
    </edge>
    <edge id="257376312#1" from="4645439609" to="267330312" priority="3" type="highway.residential" spreadType="center" shape="33.74,177.14 28.33,176.66 23.34,175.30">
        <lane id="257376312#1_0" index="0" disallow="tram rail_urban rail rail_electric rail_fast ship container cable_car subway aircraft wheelchair scooter drone" speed="19.44" length="0.20" shape="29.81,176.79 29.61,176.78"/>
    </edge>
    <edge id="362938959" from="267330312" to="267330313" priority="3" type="highway.residential">
        <lane id="362938959_0" index="0" disallow="tram rail_urban rail rail_electric rail_fast ship container cable_car subway aircraft wheelchair scooter drone" speed="13.89" length="5.29" shape="22.91,169.91 24.07,164.75"/>
    </edge>
    <edge id="363122002" from="267334480" to="267330313" priority="3" type="highway.residential" shape="27.24,0.00 32.40,31.43 33.91,43.14 34.16,47.94 34.38,60.13 32.11,99.58 26.74,160.12">
        <lane id="363122002_0" index="0" disallow="tram rail_urban rail rail_electric rail_fast ship container cable_car subway aircraft wheelchair scooter drone" speed="13.89" length="156.65" shape="28.82,-0.26 33.98,31.20 35.50,43.00 35.76,47.88 35.98,60.17 33.70,99.70 28.75,155.58"/>
    </edge>
    <edge id="470341053" from="4645439609" to="4645439607" priority="1" type="highway.service" shape="33.74,177.14 35.01,182.25 36.99,223.37 37.99,231.87">
        <lane id="470341053_0" index="0" allow="pedestrian delivery bicycle" speed="5.56" length="52.07" shape="36.05,179.79 36.60,182.01 38.59,223.23 39.58,231.68"/>
    </edge>
    <edge id="61341247" from="266233295" to="267330312" priority="3" type="highway.residential" shape="0.00,248.18 14.75,199.45 23.34,175.30">
        <lane id="61341247_0" index="0" disallow="tram rail_urban rail rail_electric rail_fast ship container cable_car subway aircraft wheelchair scooter drone" speed="13.89" length="71.55" shape="-1.53,247.72 13.23,198.95 20.13,179.54"/>
    </edge>

    <junction id="11981072910" type="priority" x="276.00" y="229.83" incLanes="257242858_0" intLanes=":11981072910_0_0" shape="276.00,229.83 277.55,227.03 276.00,229.83">
        <request index="0" response="0" foes="0" cont="0"/>
    </junction>
    <junction id="266233295" type="priority" x="0.00" y="248.18" incLanes="-61341247_0" intLanes=":266233295_0_0" shape="0.00,248.18 3.06,249.11 0.00,248.18">
        <request index="0" response="0" foes="0" cont="0"/>
    </junction>
    <junction id="267330312" type="priority" x="23.34" y="175.30" incLanes="257376312#1_0 -362938959_0 61341247_0" intLanes=":267330312_0_0 :267330312_1_0 :267330312_2_0 :267330312_3_0 :267330312_4_0 :267330312_5_0" shape="29.56,178.38 30.41,175.24 28.45,174.62 27.85,174.01 27.51,173.20 27.42,172.18 27.59,170.97 21.35,169.56 20.88,171.61 20.53,173.11 20.20,174.35 19.82,175.57 19.32,177.03 18.62,179.01 24.65,181.15 25.69,179.46 26.43,178.90 27.33,178.54 28.37,178.36">
        <request index="0" response="000000" foes="100100" cont="0"/>
        <request index="1" response="000000" foes="011100" cont="0"/>
        <request index="2" response="000011" foes="100011" cont="0"/>
        <request index="3" response="010010" foes="010010" cont="0"/>
        <request index="4" response="000010" foes="001010" cont="0"/>
        <request index="5" response="000101" foes="000101" cont="0"/>
    </junction>
    <junction id="267330313" type="priority" x="26.74" y="160.12" incLanes="363122002_0 362938959_0" intLanes=":267330313_0_0 :267330313_1_0 :267330313_6_0 :267330313_3_0 :267330313_7_0 :267330313_8_0" shape="32.83,163.45 33.56,160.23 31.67,158.94 31.03,158.22 30.60,157.44 30.37,156.61 30.35,155.72 23.97,155.16 23.64,158.61 23.47,159.82 23.25,161.01 22.94,162.45 22.50,164.40 28.75,165.80 29.60,163.77 30.22,163.22 30.96,162.99 31.83,163.06">
        <request index="0" response="000000" foes="010000" cont="0"/>
        <request index="1" response="000000" foes="110000" cont="0"/>
        <request index="2" response="001000" foes="001000" cont="1"/>
        <request index="3" response="000000" foes="000100" cont="0"/>
        <request index="4" response="000011" foes="000011" cont="1"/>
        <request index="5" response="000010" foes="000010" cont="1"/>
    </junction>
    <junction id="267330338" type="priority" x="48.65" y="173.55" incLanes="-257242858_0 24591357_0" intLanes=":267330338_0_0 :267330338_4_0 :267330338_2_0 :267330338_5_0" shape="47.36,176.57 48.48,170.27 47.42,170.05 47.05,169.91 46.72,169.71 46.35,169.43 45.87,169.03 43.78,171.44 44.30,172.22 44.22,172.56 43.91,172.86 43.37,173.13 42.61,173.36 43.36,176.47 44.82,176.21 45.35,176.21 45.88,176.29 46.52,176.41">
        <request index="0" response="0000" foes="1000" cont="0"/>
        <request index="1" response="0100" foes="0100" cont="1"/>
        <request index="2" response="0000" foes="0010" cont="0"/>
        <request index="3" response="0001" foes="0001" cont="1"/>
    </junction>
    <junction id="267334480" type="priority" x="27.24" y="0.00" incLanes="-363122002_0" intLanes=":267334480_0_0" shape="27.24,0.00 24.08,0.52 27.24,0.00">
        <request index="0" response="0" foes="0" cont="0"/>
    </junction>
    <junction id="4645439607" type="priority" x="37.99" y="231.87" incLanes="470341053_0" intLanes=":4645439607_0_0" shape="37.99,231.87 41.16,231.50 37.99,231.87">
        <request index="0" response="0" foes="0" cont="0"/>
    </junction>
    <junction id="4645439609" type="priority" x="33.74" y="177.14" incLanes="-470341053_0 257376312#0_0" intLanes=":4645439609_0_0 :4645439609_1_0 :4645439609_2_0 :4645439609_3_0" shape="31.39,180.95 37.60,179.40 37.56,178.55 37.70,178.22 37.93,177.95 38.26,177.74 38.70,177.59 37.95,174.48 34.89,175.18 33.80,175.33 32.69,175.37 31.36,175.31 29.57,175.17 29.29,178.35 30.18,178.70 30.56,179.07 30.89,179.57 31.16,180.19">
        <request index="0" response="1000" foes="1000" cont="0"/>
        <request index="1" response="0100" foes="0100" cont="0"/>
        <request index="2" response="0000" foes="0010" cont="0"/>
        <request index="3" response="0000" foes="0001" cont="0"/>
    </junction>

    <junction id=":267330313_6_0" type="internal" x="27.85" y="156.71" incLanes=":267330313_2_0 362938959_0" intLanes=":267330313_3_0"/>
    <junction id=":267330313_7_0" type="internal" x="25.29" y="161.96" incLanes=":267330313_4_0 363122002_0" intLanes=":267330313_0_0 :267330313_1_0"/>
    <junction id=":267330313_8_0" type="internal" x="25.11" y="163.75" incLanes=":267330313_5_0 363122002_0" intLanes=":267330313_1_0"/>
    <junction id=":267330338_4_0" type="internal" x="46.60" y="174.00" incLanes=":267330338_1_0 24591357_0" intLanes=":267330338_2_0"/>
    <junction id=":267330338_5_0" type="internal" x="46.21" y="172.47" incLanes=":267330338_3_0 -257242858_0" intLanes=":267330338_0_0"/>

    <connection from="-257242858" to="257376312#0" fromLane="0" toLane="0" keepClear="0" via=":267330338_0_0" dir="s" state="M"/>
    <connection from="-257242858" to="257242858" fromLane="0" toLane="0" keepClear="0" via=":267330338_1_0" dir="t" state="m"/>
    <connection from="-362938959" to="-61341247" fromLane="0" toLane="0" keepClear="0" via=":267330312_2_0" dir="s" state="m"/>
    <connection from="-362938959" to="362938959" fromLane="0" toLane="0" keepClear="0" via=":267330312_3_0" dir="t" state="m"/>
    <connection from="-363122002" to="363122002" fromLane="0" toLane="0" via=":267334480_0_0" dir="t" state="M"/>
    <connection from="-470341053" to="257376312#1" fromLane="0" toLane="0" keepClear="0" via=":4645439609_0_0" dir="r" state="m"/>
    <connection from="-470341053" to="470341053" fromLane="0" toLane="0" keepClear="0" via=":4645439609_1_0" dir="t" state="m"/>
    <connection from="-61341247" to="61341247" fromLane="0" toLane="0" via=":266233295_0_0" dir="t" state="M"/>
    <connection from="24591357" to="257242858" fromLane="0" toLane="0" keepClear="0" via=":267330338_2_0" dir="s" state="M"/>
    <connection from="24591357" to="257376312#0" fromLane="0" toLane="0" keepClear="0" via=":267330338_3_0" dir="l" state="m"/>
    <connection from="257242858" to="-257242858" fromLane="0" toLane="0" via=":11981072910_0_0" dir="t" state="M"/>
    <connection from="257376312#0" to="470341053" fromLane="0" toLane="0" keepClear="0" via=":4645439609_2_0" dir="r" state="M"/>
    <connection from="257376312#0" to="257376312#1" fromLane="0" toLane="0" keepClear="0" via=":4645439609_3_0" dir="s" state="M"/>
    <connection from="257376312#1" to="-61341247" fromLane="0" toLane="0" keepClear="0" via=":267330312_0_0" dir="r" state="M"/>
    <connection from="257376312#1" to="362938959" fromLane="0" toLane="0" keepClear="0" via=":267330312_1_0" dir="l" state="M"/>
    <connection from="362938959" to="-363122002" fromLane="0" toLane="0" keepClear="0" via=":267330313_3_0" dir="s" state="M"/>
    <connection from="362938959" to="24591357" fromLane="0" toLane="0" keepClear="0" via=":267330313_4_0" dir="l" state="m"/>
    <connection from="362938959" to="-362938959" fromLane="0" toLane="0" keepClear="0" via=":267330313_5_0" dir="t" state="m"/>
    <connection from="363122002" to="24591357" fromLane="0" toLane="0" keepClear="0" via=":267330313_0_0" dir="r" state="M"/>
    <connection from="363122002" to="-362938959" fromLane="0" toLane="0" keepClear="0" via=":267330313_1_0" dir="s" state="M"/>
    <connection from="363122002" to="-363122002" fromLane="0" toLane="0" keepClear="0" via=":267330313_2_0" dir="t" state="m"/>
    <connection from="470341053" to="-470341053" fromLane="0" toLane="0" via=":4645439607_0_0" dir="t" state="M"/>
    <connection from="61341247" to="362938959" fromLane="0" toLane="0" keepClear="0" via=":267330312_4_0" dir="s" state="m"/>
    <connection from="61341247" to="-61341247" fromLane="0" toLane="0" keepClear="0" via=":267330312_5_0" dir="t" state="m"/>

    <connection from=":11981072910_0" to="-257242858" fromLane="0" toLane="0" dir="t" state="M"/>
    <connection from=":266233295_0" to="61341247" fromLane="0" toLane="0" dir="t" state="M"/>
    <connection from=":267330312_0" to="-61341247" fromLane="0" toLane="0" dir="r" state="M"/>
    <connection from=":267330312_1" to="362938959" fromLane="0" toLane="0" dir="l" state="M"/>
    <connection from=":267330312_2" to="-61341247" fromLane="0" toLane="0" dir="s" state="M"/>
    <connection from=":267330312_3" to="362938959" fromLane="0" toLane="0" dir="t" state="M"/>
    <connection from=":267330312_4" to="362938959" fromLane="0" toLane="0" dir="s" state="M"/>
    <connection from=":267330312_5" to="-61341247" fromLane="0" toLane="0" dir="t" state="M"/>
    <connection from=":267330313_0" to="24591357" fromLane="0" toLane="0" dir="r" state="M"/>
    <connection from=":267330313_1" to="-362938959" fromLane="0" toLane="0" dir="s" state="M"/>
    <connection from=":267330313_2" to="-363122002" fromLane="0" toLane="0" via=":267330313_6_0" dir="t" state="m"/>
    <connection from=":267330313_6" to="-363122002" fromLane="0" toLane="0" dir="t" state="M"/>
    <connection from=":267330313_3" to="-363122002" fromLane="0" toLane="0" dir="s" state="M"/>
    <connection from=":267330313_4" to="24591357" fromLane="0" toLane="0" via=":267330313_7_0" dir="l" state="m"/>
    <connection from=":267330313_7" to="24591357" fromLane="0" toLane="0" dir="l" state="M"/>
    <connection from=":267330313_5" to="-362938959" fromLane="0" toLane="0" via=":267330313_8_0" dir="t" state="m"/>
    <connection from=":267330313_8" to="-362938959" fromLane="0" toLane="0" dir="t" state="M"/>
    <connection from=":267330338_0" to="257376312#0" fromLane="0" toLane="0" dir="s" state="M"/>
    <connection from=":267330338_1" to="257242858" fromLane="0" toLane="0" via=":267330338_4_0" dir="t" state="m"/>
    <connection from=":267330338_4" to="257242858" fromLane="0" toLane="0" dir="t" state="M"/>
    <connection from=":267330338_2" to="257242858" fromLane="0" toLane="0" dir="s" state="M"/>
    <connection from=":267330338_3" to="257376312#0" fromLane="0" toLane="0" via=":267330338_5_0" dir="l" state="m"/>
    <connection from=":267330338_5" to="257376312#0" fromLane="0" toLane="0" dir="l" state="M"/>
    <connection from=":267334480_0" to="363122002" fromLane="0" toLane="0" dir="t" state="M"/>
    <connection from=":4645439607_0" to="-470341053" fromLane="0" toLane="0" dir="t" state="M"/>
    <connection from=":4645439609_0" to="257376312#1" fromLane="0" toLane="0" dir="r" state="M"/>
    <connection from=":4645439609_1" to="470341053" fromLane="0" toLane="0" dir="t" state="M"/>
    <connection from=":4645439609_2" to="470341053" fromLane="0" toLane="0" dir="r" state="M"/>
    <connection from=":4645439609_3" to="257376312#1" fromLane="0" toLane="0" dir="s" state="M"/>

</net>
