<?xml version="1.0" encoding="UTF-8"?>

<!-- generated on 2024-09-03 01:36:56 by Eclipse SUMO netconvert Version 1.20.0
<configuration xmlns:xsi="http://www.w3.org/2001/XMLSchema-instance" xsi:noNamespaceSchemaLocation="http://sumo.dlr.de/xsd/netconvertConfiguration.xsd">

    <input>
        <osm-files value="train_files/roundabout/easy/osm_files/map(50).osm"/>
    </input>

    <output>
        <output-file value="train_files/roundabout/easy/outputs/map(50)_dict/map(50)/map(50).net.xml"/>
    </output>

    <projection>
        <proj.utm value="true"/>
    </projection>

    <building_defaults>
        <default.junctions.keep-clear value="false"/>
    </building_defaults>

</configuration>
-->

<net version="1.20" junctionCornerDetail="5" limitTurnSpeed="5.50" xmlns:xsi="http://www.w3.org/2001/XMLSchema-instance" xsi:noNamespaceSchemaLocation="http://sumo.dlr.de/xsd/net_file.xsd">

    <location netOffset="-469923.34,-5413975.23" convBoundary="0.00,0.00,502.78,624.96" origBoundary="2.589748,48.878010,2.596635,48.883625" projParameter="+proj=utm +zone=31 +ellps=WGS84 +datum=WGS84 +units=m +no_defs"/>

    <type id="highway.cycleway" priority="1" numLanes="1" speed="5.56" allow="bicycle" oneway="0" width="2.00"/>
    <type id="highway.footway" priority="1" numLanes="1" speed="2.78" allow="pedestrian" oneway="1" width="2.00"/>
    <type id="highway.pedestrian" priority="1" numLanes="1" speed="2.78" allow="pedestrian" oneway="1" width="2.00"/>
    <type id="highway.residential" priority="3" numLanes="1" speed="13.89" disallow="tram rail_urban rail rail_electric rail_fast ship container cable_car subway aircraft wheelchair scooter drone" oneway="0"/>
    <type id="highway.secondary" priority="11" numLanes="1" speed="27.78" disallow="tram rail_urban rail rail_electric rail_fast ship container cable_car subway aircraft wheelchair scooter drone" oneway="0"/>
    <type id="highway.service" priority="1" numLanes="1" speed="5.56" allow="pedestrian delivery bicycle" oneway="0"/>
    <type id="highway.steps" priority="1" numLanes="1" speed="1.39" allow="pedestrian" oneway="1" width="2.00"/>

    <edge id=":1295198967_0" function="internal">
        <lane id=":1295198967_0_0" index="0" allow="pedestrian bicycle" speed="5.05" length="5.96" width="1.50" shape="338.70,242.89 337.56,243.60 337.02,244.68 337.07,246.14 337.72,247.97"/>
    </edge>
    <edge id=":1295198967_1" function="internal">
        <lane id=":1295198967_1_0" index="0" allow="pedestrian bicycle" speed="5.56" length="11.76" width="1.50" shape="338.70,242.89 335.62,243.96 333.14,244.87 330.77,246.01 328.06,247.78"/>
    </edge>
    <edge id=":1295198967_2" function="internal">
        <lane id=":1295198967_2_0" index="0" allow="pedestrian bicycle" speed="5.60" length="5.89" width="1.50" shape="338.70,242.89 333.26,245.14"/>
    </edge>
    <edge id=":1295198967_3" function="internal">
        <lane id=":1295198967_3_0" index="0" allow="pedestrian bicycle" speed="2.50" length="2.20" width="1.50" shape="338.70,242.89 338.03,242.78 337.70,242.52 337.71,242.10 338.07,241.52"/>
    </edge>
    <edge id=":1295198967_4" function="internal">
        <lane id=":1295198967_4_0" index="0" allow="pedestrian bicycle" speed="4.28" length="2.79" width="1.50" shape="335.70,243.00 338.07,241.52"/>
    </edge>
    <edge id=":1295198967_5" function="internal">
        <lane id=":1295198967_5_0" index="0" disallow="tram rail_urban rail rail_electric rail_fast ship container cable_car subway aircraft wheelchair scooter drone" speed="8.33" length="5.38" shape="335.70,243.00 336.45,244.40 336.81,245.43 337.12,246.49 337.72,247.97"/>
    </edge>
    <edge id=":1295198967_6" function="internal">
        <lane id=":1295198967_6_0" index="0" allow="pedestrian bicycle" speed="6.68" length="5.13" width="1.50" shape="335.70,243.00 331.35,245.72"/>
    </edge>
    <edge id=":1295198967_7" function="internal">
        <lane id=":1295198967_7_0" index="0" disallow="tram rail_urban rail rail_electric rail_fast ship container cable_car subway aircraft wheelchair scooter drone" speed="3.67" length="4.50" shape="335.70,243.00 335.89,244.45 335.55,245.29 334.67,245.52 333.49,245.20"/>
    </edge>
    <edge id=":1295198967_13" function="internal">
        <lane id=":1295198967_13_0" index="0" allow="pedestrian bicycle" speed="6.68" length="3.87" width="1.50" shape="331.35,245.72 328.06,247.78"/>
    </edge>
    <edge id=":1295198967_14" function="internal">
        <lane id=":1295198967_14_0" index="0" disallow="tram rail_urban rail rail_electric rail_fast ship container cable_car subway aircraft wheelchair scooter drone" speed="3.67" length="0.24" shape="333.49,245.20 333.26,245.14"/>
    </edge>
    <edge id=":1295198967_8" function="internal">
        <lane id=":1295198967_8_0" index="0" allow="pedestrian bicycle" speed="5.41" length="6.10" width="1.50" shape="327.31,246.47 333.26,245.14"/>
    </edge>
    <edge id=":1295198967_9" function="internal">
        <lane id=":1295198967_9_0" index="0" allow="pedestrian bicycle" speed="5.56" length="11.90" width="1.50" shape="327.31,246.47 330.04,244.70 332.44,243.53 334.97,242.60 338.07,241.52"/>
    </edge>
    <edge id=":1295198967_10" function="internal">
        <lane id=":1295198967_10_0" index="0" allow="pedestrian bicycle" speed="6.94" length="12.55" width="1.50" shape="327.31,246.47 330.67,244.59 333.53,244.22 335.88,245.34 337.72,247.97"/>
    </edge>
    <edge id=":1295198967_11" function="internal">
        <lane id=":1295198967_11_0" index="0" allow="pedestrian bicycle" speed="2.50" length="2.20" width="1.50" shape="327.31,246.47 327.99,246.51 328.34,246.75 328.36,247.17 328.06,247.78"/>
    </edge>
    <edge id=":1295198967_12" function="internal">
        <lane id=":1295198967_12_0" index="0" disallow="tram rail_urban rail rail_electric rail_fast ship container cable_car subway aircraft wheelchair scooter drone" speed="6.02" length="3.23" shape="333.00,248.28 333.23,247.50 333.43,246.67 333.48,245.85 333.26,245.14"/>
    </edge>
    <edge id=":1295199090_0" function="internal">
        <lane id=":1295199090_0_0" index="0" disallow="tram rail_urban rail rail_electric rail_fast ship container cable_car subway aircraft wheelchair scooter drone" speed="8.33" length="8.86" shape="325.95,259.89 328.14,258.61 329.33,257.28 330.17,255.58 331.32,253.19"/>
    </edge>
    <edge id=":1295199090_1" function="internal">
        <lane id=":1295199090_1_0" index="0" disallow="tram rail_urban rail rail_electric rail_fast ship container cable_car subway aircraft wheelchair scooter drone" speed="8.33" length="7.11" shape="325.95,259.89 332.42,256.94"/>
    </edge>
    <edge id=":1295199182_0" function="internal">
        <lane id=":1295199182_0_0" index="0" disallow="tram rail_urban rail rail_electric rail_fast ship container cable_car subway aircraft wheelchair scooter drone" speed="8.33" length="4.29" shape="330.65,270.35 330.07,271.48 329.70,272.27 329.37,273.08 328.92,274.27"/>
    </edge>
    <edge id=":1354991787_0" function="internal">
        <lane id=":1354991787_0_0" index="0" allow="pedestrian bicycle" speed="5.56" length="6.30" width="1.50" shape="277.63,277.66 271.35,277.15"/>
    </edge>
    <edge id=":1354991787_1" function="internal">
        <lane id=":1354991787_1_0" index="0" allow="pedestrian bicycle" speed="2.50" length="2.03" width="1.50" shape="277.63,277.66 277.08,277.27 276.91,276.89 277.11,276.52 277.54,276.25"/>
    </edge>
    <edge id=":1354991787_4" function="internal">
        <lane id=":1354991787_4_0" index="0" allow="pedestrian bicycle" speed="2.50" length="0.16" width="1.50" shape="277.54,276.25 277.68,276.17"/>
    </edge>
    <edge id=":1354991787_2" function="internal">
        <lane id=":1354991787_2_0" index="0" allow="pedestrian bicycle" speed="5.56" length="6.76" width="1.50" shape="270.98,275.29 277.68,276.17"/>
    </edge>
    <edge id=":1354991787_3" function="internal">
        <lane id=":1354991787_3_0" index="0" allow="pedestrian bicycle" speed="2.71" length="1.39" width="1.50" shape="270.98,275.29 271.77,275.62 272.10,276.03"/>
    </edge>
    <edge id=":1354991787_5" function="internal">
        <lane id=":1354991787_5_0" index="0" allow="pedestrian bicycle" speed="2.71" length="1.39" width="1.50" shape="272.10,276.03 271.96,276.55 271.35,277.15"/>
    </edge>
    <edge id=":1354991955_0" function="internal">
        <lane id=":1354991955_0_0" index="0" allow="pedestrian bicycle" speed="5.56" length="2.26" width="1.50" shape="261.41,288.40 260.92,288.83 260.50,289.00 260.03,289.11 259.40,289.35"/>
    </edge>
    <edge id=":1354991955_1" function="internal">
        <lane id=":1354991955_1_0" index="0" allow="pedestrian bicycle" speed="2.50" length="2.19" width="1.50" shape="261.41,288.40 260.75,288.57 260.35,288.46 260.19,288.07 260.28,287.40"/>
    </edge>
    <edge id=":1354991955_2" function="internal">
        <lane id=":1354991955_2_0" index="0" allow="pedestrian bicycle" speed="5.56" length="1.67" width="1.50" shape="258.73,288.01 260.28,287.40"/>
    </edge>
    <edge id=":1354991955_3" function="internal">
        <lane id=":1354991955_3_0" index="0" allow="pedestrian bicycle" speed="2.50" length="2.19" width="1.50" shape="258.73,288.01 259.40,288.09 259.73,288.34 259.73,288.76 259.40,289.35"/>
    </edge>
    <edge id=":1354991957_0" function="internal">
        <lane id=":1354991957_0_0" index="0" allow="pedestrian bicycle" speed="5.56" length="3.44" width="1.50" shape="327.90,247.89 327.06,248.47 326.49,248.89 326.00,249.39 325.44,250.23"/>
    </edge>
    <edge id=":1354991957_1" function="internal">
        <lane id=":1354991957_1_0" index="0" allow="pedestrian bicycle" speed="2.50" length="1.72" width="1.50" shape="327.90,247.89 327.22,247.85 326.87,247.62 326.85,247.20 326.93,247.02"/>
    </edge>
    <edge id=":1354991957_4" function="internal">
        <lane id=":1354991957_4_0" index="0" allow="pedestrian bicycle" speed="2.50" length="0.48" width="1.50" shape="326.93,247.02 327.15,246.59"/>
    </edge>
    <edge id=":1354991957_2" function="internal">
        <lane id=":1354991957_2_0" index="0" allow="pedestrian bicycle" speed="5.56" length="4.19" width="1.50" shape="324.16,249.44 324.84,248.42 325.43,247.81 326.13,247.30 327.15,246.59"/>
    </edge>
    <edge id=":1354991957_3" function="internal">
        <lane id=":1354991957_3_0" index="0" allow="pedestrian bicycle" speed="2.50" length="2.03" width="1.50" shape="324.16,249.44 324.77,249.16 325.19,249.19 325.41,249.55 325.43,250.06"/>
    </edge>
    <edge id=":1354991957_5" function="internal">
        <lane id=":1354991957_5_0" index="0" allow="pedestrian bicycle" speed="2.50" length="0.16" width="1.50" shape="325.43,250.06 325.44,250.23"/>
    </edge>
    <edge id=":1354991959_0" function="internal">
        <lane id=":1354991959_0_0" index="0" allow="pedestrian bicycle" speed="4.40" length="3.79" width="1.50" shape="269.99,282.31 269.17,281.67 268.36,281.47 267.54,281.72 266.73,282.40"/>
    </edge>
    <edge id=":1354991959_1" function="internal">
        <lane id=":1354991959_1_0" index="0" disallow="tram rail_urban rail rail_electric rail_fast ship container cable_car subway aircraft wheelchair scooter drone" speed="8.33" length="5.00" shape="269.99,282.31 266.54,278.70"/>
    </edge>
    <edge id=":1354991959_2" function="internal">
        <lane id=":1354991959_2_0" index="0" allow="pedestrian bicycle" speed="6.26" length="1.54" width="1.50" shape="269.99,282.31 269.16,281.01"/>
    </edge>
    <edge id=":1354991959_14" function="internal">
        <lane id=":1354991959_14_0" index="0" allow="pedestrian bicycle" speed="6.26" length="6.15" width="1.50" shape="269.16,281.01 269.04,280.83 268.87,279.19 269.47,277.40 270.85,275.44"/>
    </edge>
    <edge id=":1354991959_3" function="internal">
        <lane id=":1354991959_3_0" index="0" allow="pedestrian bicycle" speed="4.09" length="3.24" width="1.50" shape="271.22,277.30 271.01,277.80 271.11,278.44 271.55,279.20 272.31,280.10"/>
    </edge>
    <edge id=":1354991959_4" function="internal">
        <lane id=":1354991959_4_0" index="0" allow="pedestrian bicycle" speed="5.56" length="6.79" width="1.50" shape="271.22,277.30 266.73,282.40"/>
    </edge>
    <edge id=":1354991959_5" function="internal">
        <lane id=":1354991959_5_0" index="0" allow="pedestrian bicycle" speed="4.89" length="5.58" width="1.50" shape="271.22,277.30 269.86,278.63 268.62,279.30 267.51,279.32 266.54,278.70"/>
    </edge>
    <edge id=":1354991959_6" function="internal">
        <lane id=":1354991959_6_0" index="0" allow="pedestrian bicycle" speed="2.71" length="2.77" width="1.50" shape="271.22,277.30 270.43,276.98 270.10,276.56 270.24,276.05 270.85,275.44"/>
    </edge>
    <edge id=":1354991959_7" function="internal">
        <lane id=":1354991959_7_0" index="0" allow="pedestrian bicycle" speed="3.81" length="2.58" width="1.50" shape="268.85,276.48 269.36,276.73 269.86,276.52 270.36,276.02 270.85,275.44"/>
    </edge>
    <edge id=":1354991959_8" function="internal">
        <lane id=":1354991959_8_0" index="0" disallow="tram rail_urban rail rail_electric rail_fast ship container cable_car subway aircraft wheelchair scooter drone" speed="8.33" length="5.00" shape="268.85,276.48 272.31,280.10"/>
    </edge>
    <edge id=":1354991959_9" function="internal">
        <lane id=":1354991959_9_0" index="0" allow="pedestrian bicycle" speed="5.90" length="1.45" width="1.50" shape="268.85,276.48 269.33,277.49 269.28,277.83"/>
    </edge>
    <edge id=":1354991959_15" function="internal">
        <lane id=":1354991959_15_0" index="0" allow="pedestrian bicycle" speed="5.90" length="5.33" width="1.50" shape="269.28,277.83 269.14,278.82 268.27,280.45 266.73,282.40"/>
    </edge>
    <edge id=":1354991959_10" function="internal">
        <lane id=":1354991959_10_0" index="0" allow="pedestrian bicycle" speed="3.99" length="3.10" width="1.50" shape="265.61,281.40 266.31,280.52 266.69,279.78 266.77,279.17 266.54,278.70"/>
    </edge>
    <edge id=":1354991959_11" function="internal">
        <lane id=":1354991959_11_0" index="0" allow="pedestrian bicycle" speed="5.56" length="7.93" width="1.50" shape="265.61,281.40 270.85,275.44"/>
    </edge>
    <edge id=":1354991959_12" function="internal">
        <lane id=":1354991959_12_0" index="0" allow="pedestrian bicycle" speed="5.76" length="7.85" width="1.50" shape="265.61,281.40 267.47,279.71 269.20,278.93 270.81,279.05 272.31,280.10"/>
    </edge>
    <edge id=":1354991959_13" function="internal">
        <lane id=":1354991959_13_0" index="0" allow="pedestrian bicycle" speed="2.50" length="2.19" width="1.50" shape="265.61,281.40 266.27,281.23 266.67,281.34 266.83,281.73 266.73,282.40"/>
    </edge>
    <edge id=":1354991987_0" function="internal">
        <lane id=":1354991987_0_0" index="0" allow="pedestrian bicycle" speed="5.56" length="6.05" width="1.50" shape="231.59,308.36 226.39,311.45"/>
    </edge>
    <edge id=":1354991987_1" function="internal">
        <lane id=":1354991987_1_0" index="0" allow="pedestrian bicycle" speed="2.50" length="1.89" width="1.50" shape="231.59,308.36 230.91,308.34 230.56,308.11 230.52,307.70 230.68,307.36"/>
    </edge>
    <edge id=":1354991987_4" function="internal">
        <lane id=":1354991987_4_0" index="0" allow="pedestrian bicycle" speed="2.50" length="0.30" width="1.50" shape="230.68,307.36 230.81,307.08"/>
    </edge>
    <edge id=":1354991987_2" function="internal">
        <lane id=":1354991987_2_0" index="0" allow="pedestrian bicycle" speed="5.56" length="6.02" width="1.50" shape="225.64,310.16 230.81,307.08"/>
    </edge>
    <edge id=":1354991987_3" function="internal">
        <lane id=":1354991987_3_0" index="0" allow="pedestrian bicycle" speed="2.50" length="1.85" width="1.50" shape="225.64,310.16 226.31,310.20 226.66,310.43 226.69,310.85 226.54,311.15"/>
    </edge>
    <edge id=":1354991987_5" function="internal">
        <lane id=":1354991987_5_0" index="0" allow="pedestrian bicycle" speed="2.50" length="0.35" width="1.50" shape="226.54,311.15 226.39,311.45"/>
    </edge>
    <edge id=":2228815655_0" function="internal">
        <lane id=":2228815655_0_0" index="0" disallow="tram rail_urban rail rail_electric rail_fast ship container cable_car subway aircraft wheelchair scooter drone" speed="13.89" length="0.67" shape="245.20,242.84 245.70,242.39"/>
    </edge>
    <edge id=":2382581482_0" function="internal">
        <lane id=":2382581482_0_0" index="0" disallow="tram rail_urban rail rail_electric rail_fast ship container cable_car subway aircraft wheelchair scooter drone" speed="8.33" length="5.13" shape="348.73,249.30 353.44,247.26"/>
    </edge>
    <edge id=":2382581484_0" function="internal">
        <lane id=":2382581484_0_0" index="0" disallow="tram rail_urban rail rail_electric rail_fast ship container cable_car subway aircraft wheelchair scooter drone" speed="8.33" length="5.04" shape="357.16,254.99 352.63,257.20"/>
    </edge>
    <edge id=":2386932552_0" function="internal">
        <lane id=":2386932552_0_0" index="0" allow="pedestrian delivery bicycle" speed="5.56" length="2.17" shape="339.00,241.81 339.63,241.76 340.05,241.62 340.44,241.40 341.02,241.10"/>
    </edge>
    <edge id=":2386932552_1" function="internal">
        <lane id=":2386932552_1_0" index="0" allow="pedestrian bicycle" speed="3.33" length="3.08" width="1.50" shape="339.00,241.81 340.02,241.86 340.33,242.05 339.94,242.38 338.85,242.83"/>
    </edge>
    <edge id=":2386932552_2" function="internal">
        <lane id=":2386932552_2_0" index="0" allow="pedestrian bicycle" speed="5.56" length="2.74" width="1.50" shape="338.33,241.42 339.12,241.26 339.69,241.30 340.26,241.32 341.02,241.10"/>
    </edge>
    <edge id=":2391393110_0" function="internal">
        <lane id=":2391393110_0_0" index="0" disallow="tram rail_urban rail rail_electric rail_fast ship container cable_car subway aircraft wheelchair scooter drone" speed="8.33" length="10.35" shape="288.87,297.90 286.80,295.93 284.81,295.37 282.50,295.24 279.46,294.57"/>
    </edge>
    <edge id=":2391393110_1" function="internal">
        <lane id=":2391393110_1_0" index="0" disallow="tram rail_urban rail rail_electric rail_fast ship container cable_car subway aircraft wheelchair scooter drone" speed="8.33" length="10.05" shape="288.87,297.90 286.95,295.66 285.36,294.39 283.65,293.22 281.35,291.31"/>
    </edge>
    <edge id=":2391393110_2" function="internal">
        <lane id=":2391393110_2_0" index="0" disallow="tram rail_urban rail rail_electric rail_fast ship container cable_car subway aircraft wheelchair scooter drone" speed="8.33" length="7.90" shape="288.87,297.90 287.58,295.99 286.97,294.50 286.74,292.88 286.56,290.54"/>
    </edge>
    <edge id=":2511686272_0" function="internal">
        <lane id=":2511686272_0_0" index="0" disallow="tram rail_urban rail rail_electric rail_fast ship container cable_car subway aircraft wheelchair scooter drone" speed="3.65" length="4.67" shape="129.74,0.54 130.08,-0.86 130.70,-1.51 131.59,-1.40 132.75,-0.54"/>
    </edge>
    <edge id=":2635482984_0" function="internal">
        <lane id=":2635482984_0_0" index="0" allow="pedestrian delivery bicycle" speed="5.56" length="0.28" shape="274.27,309.81 274.01,309.93"/>
    </edge>
    <edge id=":2635482984_1" function="internal">
        <lane id=":2635482984_1_0" index="0" allow="pedestrian delivery bicycle" speed="5.56" length="0.31" shape="272.62,307.05 272.90,306.91"/>
    </edge>
    <edge id=":2635482994_0" function="internal">
        <lane id=":2635482994_0_0" index="0" allow="pedestrian delivery bicycle" speed="5.56" length="8.34" shape="253.24,320.35 252.30,321.27 251.59,322.86 251.12,325.13 250.89,328.09"/>
    </edge>
    <edge id=":2635482994_1" function="internal">
        <lane id=":2635482994_1_0" index="0" allow="pedestrian delivery bicycle" speed="5.56" length="10.73" shape="253.24,320.35 244.03,325.86"/>
    </edge>
    <edge id=":2635482994_2" function="internal">
        <lane id=":2635482994_2_0" index="0" allow="pedestrian delivery bicycle" speed="3.65" length="4.67" shape="253.24,320.35 251.80,320.22 251.07,319.71 251.04,318.81 251.71,317.54"/>
    </edge>
    <edge id=":2635482994_3" function="internal">
        <lane id=":2635482994_3_0" index="0" allow="pedestrian delivery bicycle" speed="5.56" length="10.93" shape="242.34,323.15 251.71,317.54"/>
    </edge>
    <edge id=":2635482994_4" function="internal">
        <lane id=":2635482994_4_0" index="0" allow="pedestrian delivery bicycle" speed="5.56" length="13.99" shape="242.34,323.15 246.21,321.37 248.93,321.60 250.49,323.84 250.89,328.09"/>
    </edge>
    <edge id=":2635482994_5" function="internal">
        <lane id=":2635482994_5_0" index="0" allow="pedestrian delivery bicycle" speed="3.65" length="4.67" shape="242.34,323.15 243.78,323.19 244.54,323.66 244.62,324.55 244.03,325.86"/>
    </edge>
    <edge id=":2635482994_6" function="internal">
        <lane id=":2635482994_6_0" index="0" allow="pedestrian delivery bicycle" speed="4.66" length="5.99" shape="247.70,327.98 247.52,326.16 246.85,325.20 245.69,325.10 244.03,325.86"/>
    </edge>
    <edge id=":2635482994_7" function="internal">
        <lane id=":2635482994_7_0" index="0" allow="pedestrian delivery bicycle" speed="5.56" length="11.63" shape="247.70,327.98 248.05,324.17 248.84,321.16 250.06,318.95 251.71,317.54"/>
    </edge>
    <edge id=":2635482994_8" function="internal">
        <lane id=":2635482994_8_0" index="0" allow="pedestrian delivery bicycle" speed="3.65" length="4.67" shape="247.70,327.98 248.54,326.81 249.35,326.43 250.14,326.86 250.89,328.09"/>
    </edge>
    <edge id=":2635483012_0" function="internal">
        <lane id=":2635483012_0_0" index="0" allow="pedestrian delivery bicycle" speed="3.65" length="4.67" shape="107.90,458.57 106.50,458.93 105.64,458.69 105.31,457.86 105.51,456.44"/>
    </edge>
    <edge id=":2635483038_0" function="internal">
        <lane id=":2635483038_0_0" index="0" allow="pedestrian delivery bicycle" speed="5.56" length="7.90" shape="281.61,306.20 274.52,309.69"/>
    </edge>
    <edge id=":2635483038_1" function="internal">
        <lane id=":2635483038_1_0" index="0" allow="pedestrian delivery bicycle" speed="3.65" length="1.44" shape="281.61,306.20 280.18,306.03"/>
    </edge>
    <edge id=":2635483038_4" function="internal">
        <lane id=":2635483038_4_0" index="0" allow="pedestrian delivery bicycle" speed="3.65" length="3.23" shape="280.18,306.03 279.46,305.50 279.45,304.61 280.15,303.35"/>
    </edge>
    <edge id=":2635483038_2" function="internal">
        <lane id=":2635483038_2_0" index="0" allow="pedestrian delivery bicycle" speed="5.56" length="7.80" shape="273.16,306.79 280.15,303.35"/>
    </edge>
    <edge id=":2635483038_3" function="internal">
        <lane id=":2635483038_3_0" index="0" allow="pedestrian delivery bicycle" speed="3.65" length="1.44" shape="273.16,306.79 274.58,307.01"/>
    </edge>
    <edge id=":2635483038_5" function="internal">
        <lane id=":2635483038_5_0" index="0" allow="pedestrian delivery bicycle" speed="3.65" length="3.23" shape="274.58,307.01 275.28,307.56 275.26,308.45 274.52,309.69"/>
    </edge>
    <edge id=":2635483050_0" function="internal">
        <lane id=":2635483050_0_0" index="0" allow="pedestrian bicycle" speed="2.50" length="2.19" width="1.50" shape="110.22,421.56 109.60,421.82 109.18,421.77 108.97,421.41 108.97,420.73"/>
    </edge>
    <edge id=":2635483051_0" function="internal">
        <lane id=":2635483051_0_0" index="0" allow="pedestrian delivery bicycle" speed="3.65" length="4.67" shape="250.34,344.65 249.50,345.82 248.68,346.19 247.90,345.77 247.14,344.54"/>
    </edge>
    <edge id=":2635485733_0" function="internal">
        <lane id=":2635485733_0_0" index="0" disallow="tram rail_urban rail rail_electric rail_fast ship container cable_car subway aircraft wheelchair scooter drone" speed="3.65" length="4.67" shape="3.49,577.57 2.14,578.07 1.25,577.93 0.84,577.13 0.90,575.69"/>
    </edge>
    <edge id=":2635504447_0" function="internal">
        <lane id=":2635504447_0_0" index="0" disallow="tram rail_urban rail rail_electric rail_fast ship container cable_car subway aircraft wheelchair scooter drone" speed="3.65" length="4.67" shape="502.66,219.58 503.92,220.28 504.38,221.04 504.04,221.87 502.91,222.77"/>
    </edge>
    <edge id=":266316988_0" function="internal">
        <lane id=":266316988_0_0" index="0" disallow="tram rail_urban rail rail_electric rail_fast ship container cable_car subway aircraft wheelchair scooter drone" speed="9.65" length="6.22" shape="317.52,301.83 316.42,303.22 316.03,304.40 315.96,305.75 315.83,307.61"/>
    </edge>
    <edge id=":266316988_1" function="internal">
        <lane id=":266316988_1_0" index="0" disallow="tram rail_urban rail rail_electric rail_fast ship container cable_car subway aircraft wheelchair scooter drone" speed="8.33" length="6.25" shape="317.52,301.83 316.17,303.09 315.13,303.80 313.98,304.39 312.34,305.26"/>
    </edge>
    <edge id=":266317256_0" function="internal">
        <lane id=":266317256_0_0" index="0" disallow="tram rail_urban rail rail_electric rail_fast ship container cable_car subway aircraft wheelchair scooter drone" speed="8.33" length="9.88" shape="283.65,281.39 286.08,279.75 287.77,278.65 289.39,277.46 291.59,275.54"/>
    </edge>
    <edge id=":266317256_1" function="internal">
        <lane id=":266317256_1_0" index="0" disallow="tram rail_urban rail rail_electric rail_fast ship container cable_car subway aircraft wheelchair scooter drone" speed="8.33" length="10.04" shape="286.93,284.13 287.60,281.24 288.31,279.28 289.49,277.60 291.59,275.54"/>
    </edge>
    <edge id=":266317258_0" function="internal">
        <lane id=":266317258_0_0" index="0" disallow="tram rail_urban rail rail_electric rail_fast ship container cable_car subway aircraft wheelchair scooter drone" speed="8.33" length="8.57" shape="303.19,269.99 305.66,269.49 307.28,268.86 308.83,268.01 311.10,266.84"/>
    </edge>
    <edge id=":266317258_1" function="internal">
        <lane id=":266317258_1_0" index="0" disallow="tram rail_urban rail rail_electric rail_fast ship container cable_car subway aircraft wheelchair scooter drone" speed="8.33" length="8.65" shape="303.19,269.99 305.72,269.66 307.50,269.67 309.21,270.13 311.55,271.13"/>
    </edge>
    <edge id=":266317260_0" function="internal">
        <lane id=":266317260_0_0" index="0" disallow="tram rail_urban rail rail_electric rail_fast ship container cable_car subway aircraft wheelchair scooter drone" speed="8.33" length="8.54" shape="326.20,281.54 325.21,283.88 324.44,285.46 323.87,287.10 323.48,289.57"/>
    </edge>
    <edge id=":266317260_1" function="internal">
        <lane id=":266317260_1_0" index="0" disallow="tram rail_urban rail rail_electric rail_fast ship container cable_car subway aircraft wheelchair scooter drone" speed="8.33" length="8.66" shape="322.05,281.16 322.93,283.58 323.45,285.28 323.63,287.03 323.48,289.57"/>
    </edge>
    <edge id=":266317261_0" function="internal">
        <lane id=":266317261_0_0" index="0" disallow="tram rail_urban rail rail_electric rail_fast ship container cable_car subway aircraft wheelchair scooter drone" speed="11.11" length="10.96" shape="327.52,297.34 324.49,298.24 322.15,298.82 320.02,299.75 317.66,301.69"/>
    </edge>
    <edge id=":266317261_1" function="internal">
        <lane id=":266317261_1_0" index="0" disallow="tram rail_urban rail rail_electric rail_fast ship container cable_car subway aircraft wheelchair scooter drone" speed="5.22" length="7.28" shape="323.46,289.77 323.48,292.23 324.08,293.77 325.28,294.39 327.07,294.10"/>
    </edge>
    <edge id=":266317261_2" function="internal">
        <lane id=":266317261_2_0" index="0" disallow="tram rail_urban rail rail_electric rail_fast ship container cable_car subway aircraft wheelchair scooter drone" speed="8.33" length="13.54" shape="323.46,289.77 322.85,293.23 321.70,296.26 319.98,299.03 317.66,301.69"/>
    </edge>
    <edge id=":266321421_0" function="internal">
        <lane id=":266321421_0_0" index="0" allow="pedestrian delivery bicycle" speed="3.65" length="4.67" shape="249.93,279.42 250.16,280.85 249.84,281.68 248.98,281.93 247.58,281.59"/>
    </edge>
    <edge id=":266323714_0" function="internal">
        <lane id=":266323714_0_0" index="0" disallow="tram rail_urban rail rail_electric rail_fast ship container cable_car subway aircraft wheelchair scooter drone" speed="6.36" length="8.34" shape="337.80,248.15 339.08,250.15 340.63,251.31 342.47,251.62 344.58,251.08"/>
    </edge>
    <edge id=":266323714_1" function="internal">
        <lane id=":266323714_1_0" index="0" disallow="tram rail_urban rail rail_electric rail_fast ship container cable_car subway aircraft wheelchair scooter drone" speed="11.11" length="13.97" shape="337.80,248.15 338.32,250.46 338.03,253.45 336.94,257.13 335.04,261.49"/>
    </edge>
    <edge id=":266323714_2" function="internal">
        <lane id=":266323714_2_0" index="0" disallow="tram rail_urban rail rail_electric rail_fast ship container cable_car subway aircraft wheelchair scooter drone" speed="8.33" length="13.29" shape="332.60,256.85 344.58,251.08"/>
    </edge>
    <edge id=":266323862_0" function="internal">
        <lane id=":266323862_0_0" index="0" disallow="tram rail_urban rail rail_electric rail_fast ship container cable_car subway aircraft wheelchair scooter drone" speed="8.33" length="9.67" shape="338.05,264.30 335.43,265.50 333.62,266.44 332.20,267.78 330.75,270.17"/>
    </edge>
    <edge id=":266323862_1" function="internal">
        <lane id=":266323862_1_0" index="0" disallow="tram rail_urban rail rail_electric rail_fast ship container cable_car subway aircraft wheelchair scooter drone" speed="11.11" length="9.58" shape="334.99,261.58 330.75,270.17"/>
    </edge>
    <edge id=":266324548_0" function="internal">