<?xml version="1.0" encoding="UTF-8"?>

<!-- generated on 2024-09-03 01:37:45 by Eclipse SUMO netconvert Version 1.20.0
<configuration xmlns:xsi="http://www.w3.org/2001/XMLSchema-instance" xsi:noNamespaceSchemaLocation="http://sumo.dlr.de/xsd/netconvertConfiguration.xsd">

    <input>
        <osm-files value="train_files/roundabout/middle/osm_files/map(21).osm"/>
    </input>

    <output>
        <output-file value="train_files/roundabout/middle/outputs/map(21)_dict/map(21)/map(21).net.xml"/>
    </output>

    <projection>
        <proj.utm value="true"/>
    </projection>

    <building_defaults>
        <default.junctions.keep-clear value="false"/>
    </building_defaults>

</configuration>
-->

<net version="1.20" junctionCornerDetail="5" limitTurnSpeed="5.50" xmlns:xsi="http://www.w3.org/2001/XMLSchema-instance" xsi:noNamespaceSchemaLocation="http://sumo.dlr.de/xsd/net_file.xsd">

    <location netOffset="-462389.37,-5394381.92" convBoundary="0.00,0.00,696.54,1064.43" origBoundary="2.488741,48.696388,2.502023,48.712182" projParameter="+proj=utm +zone=31 +ellps=WGS84 +datum=WGS84 +units=m +no_defs"/>

    <type id="highway.cycleway" priority="1" numLanes="1" speed="5.56" allow="bicycle" oneway="0" width="2.00"/>
    <type id="highway.footway" priority="1" numLanes="1" speed="2.78" allow="pedestrian" oneway="1" width="2.00"/>
    <type id="highway.path" priority="1" numLanes="1" speed="5.56" allow="pedestrian bicycle" oneway="0" width="2.00"/>
    <type id="highway.secondary" priority="11" numLanes="1" speed="27.78" disallow="tram rail_urban rail rail_electric rail_fast ship container cable_car subway aircraft wheelchair scooter drone" oneway="0"/>
    <type id="highway.service" priority="1" numLanes="1" speed="5.56" allow="pedestrian delivery bicycle" oneway="0"/>
    <type id="highway.tertiary" priority="10" numLanes="1" speed="22.22" disallow="tram rail_urban rail rail_electric rail_fast ship container cable_car subway aircraft wheelchair scooter drone" oneway="0"/>

    <edge id=":1117684212_0" function="internal">
        <lane id=":1117684212_0_0" index="0" allow="pedestrian bicycle" speed="2.89" length="2.92" width="2.00" shape="577.78,426.04 578.10,425.20 578.53,424.84 579.08,424.98 579.73,425.59"/>
    </edge>
    <edge id=":1117684358_0" function="internal">
        <lane id=":1117684358_0_0" index="0" allow="bicycle" speed="5.56" length="4.66" width="2.00" shape="560.63,628.99 559.34,628.46 558.17,628.25 557.12,628.36 556.19,628.78"/>
    </edge>
    <edge id=":1117684358_1" function="internal">
        <lane id=":1117684358_1_0" index="0" allow="bicycle" speed="5.18" length="6.00" width="2.00" shape="560.63,628.99 558.89,627.91 557.85,626.80 557.50,625.66 557.85,624.47"/>
    </edge>
    <edge id=":1117684358_2" function="internal">
        <lane id=":1117684358_2_0" index="0" allow="pedestrian bicycle" speed="2.89" length="2.92" width="2.00" shape="560.63,628.99 560.19,628.20 560.19,627.64 560.64,627.31 561.53,627.20"/>
    </edge>
    <edge id=":1117684358_3" function="internal">
        <lane id=":1117684358_3_0" index="0" allow="bicycle" speed="3.79" length="2.90" width="2.00" shape="559.60,625.44 559.56,626.02 560.04,626.48 560.78,626.86 561.53,627.20"/>
    </edge>
    <edge id=":1117684358_4" function="internal">
        <lane id=":1117684358_4_0" index="0" allow="bicycle" speed="5.56" length="4.85" width="2.00" shape="559.60,625.44 558.84,626.65 558.19,627.39 557.39,627.99 556.19,628.78"/>
    </edge>
    <edge id=":1117684358_5" function="internal">
        <lane id=":1117684358_5_0" index="0" allow="bicycle" speed="2.89" length="2.92" width="2.00" shape="559.60,625.44 558.80,625.86 558.24,625.83 557.92,625.37 557.85,624.47"/>
    </edge>
    <edge id=":1117684358_6" function="internal">
        <lane id=":1117684358_6_0" index="0" allow="bicycle" speed="5.56" length="3.90" width="2.00" shape="555.07,627.12 556.04,626.49 556.70,626.02 557.23,625.44 557.85,624.47"/>
    </edge>
    <edge id=":1117684358_7" function="internal">
        <lane id=":1117684358_7_0" index="0" allow="bicycle" speed="5.56" length="6.78" width="2.00" shape="555.07,627.12 556.49,626.45 558.04,626.23 559.72,626.49 561.53,627.20"/>
    </edge>
    <edge id=":1117684358_8" function="internal">
        <lane id=":1117684358_8_0" index="0" allow="bicycle" speed="2.89" length="2.92" width="2.00" shape="555.07,627.12 555.98,627.12 556.46,627.40 556.53,627.95 556.19,628.78"/>
    </edge>
    <edge id=":1117684374_0" function="internal">
        <lane id=":1117684374_0_0" index="0" allow="pedestrian bicycle" speed="2.89" length="2.92" width="2.00" shape="666.67,596.34 666.53,597.23 666.17,597.66 665.61,597.64 664.85,597.16"/>
    </edge>
    <edge id=":1193596298_0" function="internal">
        <lane id=":1193596298_0_0" index="0" disallow="tram rail_urban rail rail_electric rail_fast ship container cable_car subway aircraft wheelchair scooter drone" speed="13.89" length="0.72" shape="611.34,632.86 610.63,632.72"/>
    </edge>
    <edge id=":1193596298_1" function="internal">
        <lane id=":1193596298_1_0" index="0" disallow="tram rail_urban rail rail_electric rail_fast ship container cable_car subway aircraft wheelchair scooter drone" speed="13.89" length="0.58" shape="611.18,629.57 611.35,629.59 611.47,629.57 611.59,629.56 611.76,629.57"/>
    </edge>
    <edge id=":1193596324_0" function="internal">
        <lane id=":1193596324_0_0" index="0" disallow="tram rail_urban rail rail_electric rail_fast ship container cable_car subway aircraft wheelchair scooter drone" speed="13.89" length="0.35" shape="576.19,626.73 575.85,626.65"/>
    </edge>
    <edge id=":1193596324_1" function="internal">
        <lane id=":1193596324_1_0" index="0" disallow="tram rail_urban rail rail_electric rail_fast ship container cable_car subway aircraft wheelchair scooter drone" speed="13.89" length="0.12" shape="576.63,623.55 576.74,623.57"/>
    </edge>
    <edge id=":1193596347_0" function="internal">
        <lane id=":1193596347_0_0" index="0" disallow="tram rail_urban rail rail_electric rail_fast ship container cable_car subway aircraft wheelchair scooter drone" speed="13.89" length="6.05" shape="535.14,637.69 533.87,638.96 533.03,639.87 532.31,640.86 531.36,642.38"/>
    </edge>
    <edge id=":1193596361_0" function="internal">
        <lane id=":1193596361_0_0" index="0" disallow="tram rail_urban rail rail_electric rail_fast ship container cable_car subway aircraft wheelchair scooter drone" speed="13.89" length="5.24" shape="524.30,638.86 524.93,637.44 525.39,636.48 525.91,635.55 526.70,634.21"/>
    </edge>
    <edge id=":1900311488_0" function="internal">
        <lane id=":1900311488_0_0" index="0" allow="bicycle" speed="5.56" length="5.06" width="2.00" shape="540.79,641.60 539.67,642.56 538.73,643.01 537.76,643.43 536.57,644.32"/>
    </edge>
    <edge id=":1900311488_1" function="internal">
        <lane id=":1900311488_1_0" index="0" allow="bicycle" speed="2.89" length="2.92" width="2.00" shape="540.79,641.60 539.91,641.81 539.38,641.65 539.18,641.13 539.33,640.24"/>
    </edge>
    <edge id=":1900311526_0" function="internal">
        <lane id=":1900311526_0_0" index="0" allow="bicycle" speed="5.56" length="5.37" width="2.00" shape="548.80,633.76 547.49,634.66 546.65,635.36 545.88,636.14 544.80,637.30"/>
    </edge>
    <edge id=":1900311526_1" function="internal">
        <lane id=":1900311526_1_0" index="0" allow="bicycle" speed="2.89" length="2.92" width="2.00" shape="548.80,633.76 547.90,633.76 547.41,633.48 547.34,632.93 547.68,632.10"/>
    </edge>
    <edge id=":1900311526_2" function="internal">
        <lane id=":1900311526_2_0" index="0" allow="bicycle" speed="5.56" length="5.83" width="2.00" shape="543.34,635.94 544.51,634.67 545.35,633.83 546.26,633.08 547.68,632.10"/>
    </edge>
    <edge id=":1900311526_3" function="internal">
        <lane id=":1900311526_3_0" index="0" allow="bicycle" speed="2.89" length="2.92" width="2.00" shape="543.34,635.94 544.21,635.73 544.75,635.89 544.94,636.42 544.80,637.30"/>
    </edge>
    <edge id=":1905788631_0" function="internal">
        <lane id=":1905788631_0_0" index="0" allow="pedestrian delivery bicycle" speed="5.56" length="4.83" shape="549.25,652.42 548.20,652.23 546.80,652.02 545.43,651.95 544.48,652.18"/>
    </edge>
    <edge id=":1905788637_0" function="internal">
        <lane id=":1905788637_0_0" index="0" allow="pedestrian delivery bicycle" speed="4.74" length="5.52" shape="527.54,676.69 526.87,678.15 526.93,679.30 527.71,680.15 529.22,680.69"/>
    </edge>
    <edge id=":1905788637_1" function="internal">
        <lane id=":1905788637_1_0" index="0" allow="pedestrian delivery bicycle" speed="5.27" length="5.60" shape="527.54,676.69 526.48,678.00 525.34,678.68 524.14,678.76 522.87,678.22"/>
    </edge>
    <edge id=":1905788641_0" function="internal">
        <lane id=":1905788641_0_0" index="0" allow="pedestrian delivery bicycle" speed="5.57" length="3.51" shape="514.19,673.13 513.49,673.34 512.85,673.79 512.25,674.48 511.70,675.41"/>
    </edge>
    <edge id=":1905788641_1" function="internal">
        <lane id=":1905788641_1_0" index="0" disallow="tram rail_urban rail rail_electric rail_fast ship container cable_car subway aircraft wheelchair scooter drone" speed="13.89" length="7.13" shape="515.22,669.21 511.70,675.41"/>
    </edge>
    <edge id=":1905788659_0" function="internal">
        <lane id=":1905788659_0_0" index="0" allow="pedestrian delivery bicycle" speed="5.06" length="5.04" shape="553.15,685.64 554.54,685.73 555.63,685.36 556.40,684.53 556.87,683.25"/>
    </edge>
    <edge id=":1905788659_1" function="internal">
        <lane id=":1905788659_1_0" index="0" allow="bicycle" speed="5.56" length="8.14" shape="553.15,685.64 555.96,686.43 557.86,687.45 558.84,688.70 558.92,690.17"/>
    </edge>
    <edge id=":1905788763_0" function="internal">
        <lane id=":1905788763_0_0" index="0" allow="pedestrian delivery bicycle" speed="5.56" length="7.07" shape="562.21,659.11 562.34,657.26 561.77,655.82 560.52,654.79 558.57,654.16"/>
    </edge>
    <edge id=":1905788763_1" function="internal">
        <lane id=":1905788763_1_0" index="0" allow="bicycle" speed="5.56" length="6.49" shape="564.84,654.56 563.22,653.79 561.91,653.87 560.49,654.20 558.57,654.16"/>
    </edge>
    <edge id=":1905848641_0" function="internal">
        <lane id=":1905848641_0_0" index="0" allow="bicycle" speed="5.15" length="4.26" width="2.00" shape="551.75,595.48 551.96,596.94 552.33,598.03 552.86,598.73 553.54,599.05"/>
    </edge>
    <edge id=":1905848641_1" function="internal">
        <lane id=":1905848641_1_0" index="0" disallow="tram rail_urban rail rail_electric rail_fast ship container cable_car subway aircraft wheelchair scooter drone" speed="13.89" length="5.91" shape="551.15,595.53 551.46,601.52"/>
        <lane id=":1905848641_1_1" index="1" disallow="tram rail_urban rail rail_electric rail_fast ship container cable_car subway aircraft wheelchair scooter drone" speed="13.89" length="5.91" shape="547.96,595.78 548.26,601.60"/>
    </edge>
    <edge id=":1905848641_3" function="internal">
        <lane id=":1905848641_3_0" index="0" allow="bicycle" speed="5.56" length="8.60" width="2.00" shape="544.99,598.41 547.54,598.40 549.29,598.45 551.03,598.64 553.54,599.05"/>
    </edge>
    <edge id=":1905848641_4" function="internal">
        <lane id=":1905848641_4_0" index="0" allow="bicycle" speed="5.20" length="5.67" width="2.00" shape="544.99,598.41 546.65,598.60 547.85,599.20 548.58,600.19 548.86,601.58"/>
    </edge>
    <edge id=":1906079970_0" function="internal">
        <lane id=":1906079970_0_0" index="0" allow="pedestrian bicycle" speed="2.89" length="2.92" width="2.00" shape="592.84,725.60 592.76,726.50 592.44,726.95 591.88,726.97 591.08,726.55"/>
    </edge>
    <edge id=":244007948_0" function="internal">
        <lane id=":244007948_0_0" index="0" disallow="tram rail_urban rail rail_electric rail_fast ship container cable_car subway aircraft wheelchair scooter drone" speed="12.93" length="6.68" shape="544.52,628.41 542.80,629.20 541.88,630.17 541.11,631.40 539.85,632.95"/>
    </edge>
    <edge id=":244007948_1" function="internal">
        <lane id=":244007948_1_0" index="0" disallow="tram rail_urban rail rail_electric rail_fast ship container cable_car subway aircraft wheelchair scooter drone" speed="11.17" length="6.37" width="5.00" shape="544.52,628.41 542.72,628.81 541.44,628.74 540.15,628.35 538.34,627.79"/>
    </edge>
    <edge id=":244007955_0" function="internal">
        <lane id=":244007955_0_0" index="0" disallow="tram rail_urban rail rail_electric rail_fast ship container cable_car subway aircraft wheelchair scooter drone" speed="10.36" length="6.70" shape="534.23,609.06 535.21,607.47 535.37,606.14 535.17,604.68 535.11,602.67"/>
    </edge>
    <edge id=":244007955_1" function="internal">
        <lane id=":244007955_1_0" index="0" disallow="tram rail_urban rail rail_electric rail_fast ship container cable_car subway aircraft wheelchair scooter drone" speed="10.78" length="6.24" width="5.00" shape="534.23,609.06 535.46,607.72 536.50,606.99 537.71,606.52 539.48,605.99"/>
    </edge>
    <edge id=":244007957_0" function="internal">
        <lane id=":244007957_0_0" index="0" disallow="tram rail_urban rail rail_electric rail_fast ship container cable_car subway aircraft wheelchair scooter drone" speed="13.89" length="0.73" width="5.00" shape="531.68,621.06 531.58,620.87 531.53,620.73 531.49,620.59 531.45,620.37"/>
    </edge>
    <edge id=":244007958_0" function="internal">
        <lane id=":244007958_0_0" index="0" disallow="tram rail_urban rail rail_electric rail_fast ship container cable_car subway aircraft wheelchair scooter drone" speed="11.76" length="7.19" width="5.00" shape="536.42,626.76 534.66,625.61 533.61,624.59 532.82,623.32 531.86,621.42"/>
    </edge>
    <edge id=":244007958_1" function="internal">
        <lane id=":244007958_1_0" index="0" disallow="tram rail_urban rail rail_electric rail_fast ship container cable_car subway aircraft wheelchair scooter drone" speed="7.57" length="7.24" width="5.00" shape="530.31,628.23 531.43,626.11 532.06,624.27 532.21,622.70 531.86,621.42"/>
    </edge>
    <edge id=":244008091_0" function="internal">
        <lane id=":244008091_0_0" index="0" disallow="tram rail_urban rail rail_electric rail_fast ship container cable_car subway aircraft wheelchair scooter drone" speed="3.66" length="4.63" shape="542.20,524.11 542.93,522.88 543.70,522.44 544.51,522.80 545.36,523.94"/>
    </edge>
    <edge id=":244008094_0" function="internal">
        <lane id=":244008094_0_0" index="0" disallow="tram rail_urban rail rail_electric rail_fast ship container cable_car subway aircraft wheelchair scooter drone" speed="13.89" length="8.94" width="5.00" shape="551.47,602.10 551.39,604.77 551.23,606.64 551.41,608.43 552.30,610.87"/>
    </edge>
    <edge id=":244008094_1" function="internal">
        <lane id=":244008094_1_0" index="0" disallow="tram rail_urban rail rail_electric rail_fast ship container cable_car subway aircraft wheelchair scooter drone" speed="8.47" length="10.52" width="5.00" shape="543.95,605.57 546.66,605.86 548.96,606.84 550.84,608.51 552.30,610.87"/>
    </edge>
    <edge id=":2480612320_0" function="internal">
        <lane id=":2480612320_0_0" index="0" allow="bicycle" speed="5.56" length="5.01" width="2.00" shape="521.51,637.83 522.80,633.00"/>
    </edge>
    <edge id=":2617909677_0" function="internal">
        <lane id=":2617909677_0_0" index="0" allow="bicycle" speed="5.56" length="5.21" width="2.00" shape="532.06,599.61 533.26,599.29 534.21,598.59 534.90,597.52 535.35,596.07"/>
    </edge>
    <edge id=":2617909677_1" function="internal">
        <lane id=":2617909677_1_0" index="0" allow="bicycle" speed="5.56" length="6.86" width="2.00" shape="532.06,599.61 538.86,598.70"/>
    </edge>
    <edge id=":2617909677_2" function="internal">
        <lane id=":2617909677_2_0" index="0" disallow="tram rail_urban rail rail_electric rail_fast ship container cable_car subway aircraft wheelchair scooter drone" speed="13.89" length="5.93" shape="535.15,602.06 535.27,600.30 535.40,599.10 535.60,597.91 535.94,596.18"/>
    </edge>
    <edge id=":2617909677_3" function="internal">
        <lane id=":2617909677_3_0" index="0" allow="bicycle" speed="5.48" length="5.03" width="2.00" shape="535.75,602.10 536.01,600.79 536.62,599.79 537.57,599.10 538.86,598.70"/>
    </edge>
    <edge id=":2617909678_0" function="internal">
        <lane id=":2617909678_0_0" index="0" allow="bicycle" speed="5.58" length="5.00" width="2.00" shape="564.29,624.38 562.67,624.11 561.36,624.16 560.37,624.55 559.70,625.27"/>
    </edge>
    <edge id=":2617909678_1" function="internal">
        <lane id=":2617909678_1_0" index="0" disallow="tram rail_urban rail rail_electric rail_fast ship container cable_car subway aircraft wheelchair scooter drone" speed="13.89" length="6.80" shape="564.43,623.80 557.72,622.67"/>
    </edge>
    <edge id=":2617909678_2" function="internal">
        <lane id=":2617909678_2_0" index="0" allow="bicycle" speed="6.26" length="0.59" width="2.00" shape="564.58,623.22 564.03,622.99"/>
    </edge>
    <edge id=":2617909678_14" function="internal">
        <lane id=":2617909678_14_0" index="0" allow="bicycle" speed="6.26" length="8.12" width="2.00" shape="564.03,622.99 562.48,622.32 561.23,620.89 560.84,618.93 561.31,616.44"/>
    </edge>
    <edge id=":2617909678_3" function="internal">
        <lane id=":2617909678_3_0" index="0" allow="bicycle" speed="4.36" length="4.07" width="2.00" shape="563.21,617.06 563.05,618.12 563.30,618.97 563.98,619.61 565.08,620.05"/>
    </edge>
    <edge id=":2617909678_4" function="internal">
        <lane id=":2617909678_4_0" index="0" allow="bicycle" speed="5.56" length="8.96" width="2.00" shape="563.21,617.06 562.40,619.59 561.78,621.31 561.00,622.96 559.70,625.27"/>
    </edge>
    <edge id=":2617909678_5" function="internal">
        <lane id=":2617909678_5_0" index="0" allow="bicycle" speed="6.73" length="9.03" width="2.00" shape="563.21,617.06 562.04,619.99 560.71,622.01 559.24,623.09 557.62,623.26"/>
    </edge>
    <edge id=":2617909678_6" function="internal">
        <lane id=":2617909678_6_0" index="0" allow="bicycle" speed="2.89" length="2.92" width="2.00" shape="563.21,617.06 562.51,617.62 561.95,617.70 561.56,617.31 561.31,616.44"/>
    </edge>
    <edge id=":2617909678_7" function="internal">
        <lane id=":2617909678_7_0" index="0" allow="bicycle" speed="4.93" length="4.23" width="2.00" shape="558.37,618.93 559.31,618.90 560.12,618.48 560.78,617.66 561.31,616.44"/>
    </edge>
    <edge id=":2617909678_8" function="internal">
        <lane id=":2617909678_8_0" index="0" disallow="tram rail_urban rail rail_electric rail_fast ship container cable_car subway aircraft wheelchair scooter drone" speed="13.89" length="6.75" shape="558.27,619.52 564.93,620.63"/>
    </edge>
    <edge id=":2617909678_9" function="internal">
        <lane id=":2617909678_9_0" index="0" allow="bicycle" speed="5.17" length="0.64" width="2.00" shape="558.17,620.11 558.77,620.33"/>
    </edge>
    <edge id=":2617909678_15" function="internal">
        <lane id=":2617909678_15_0" index="0" allow="bicycle" speed="5.17" length="6.13" width="2.00" shape="558.77,620.33 559.81,620.70 560.61,621.76 560.57,623.28 559.70,625.27"/>
    </edge>
    <edge id=":2617909678_10" function="internal">
        <lane id=":2617909678_10_0" index="0" allow="bicycle" speed="2.70" length="1.38" width="2.00" shape="557.95,624.30 558.12,623.90 558.13,623.59 557.96,623.38 557.62,623.26"/>
    </edge>
    <edge id=":2617909678_11" function="internal">
        <lane id=":2617909678_11_0" index="0" allow="bicycle" speed="5.56" length="8.58" width="2.00" shape="557.95,624.30 559.20,622.09 559.94,620.51 560.53,618.87 561.31,616.44"/>
    </edge>
    <edge id=":2617909678_12" function="internal">
        <lane id=":2617909678_12_0" index="0" allow="bicycle" speed="7.12" length="8.94" width="2.00" shape="557.95,624.30 559.55,622.06 561.26,620.60 563.11,619.93 565.08,620.05"/>
    </edge>
    <edge id=":2617909678_13" function="internal">
        <lane id=":2617909678_13_0" index="0" allow="bicycle" speed="2.89" length="2.92" width="2.00" shape="557.95,624.30 558.75,623.89 559.31,623.91 559.63,624.37 559.70,625.27"/>
    </edge>
    <edge id=":3218748987_0" function="internal">
        <lane id=":3218748987_0_0" index="0" allow="bicycle" speed="4.86" length="4.87" width="2.00" shape="516.79,674.98 515.73,674.56 514.74,674.71 513.80,675.43 512.93,676.71"/>
    </edge>
    <edge id=":3218748987_1" function="internal">
        <lane id=":3218748987_1_0" index="0" allow="pedestrian delivery bicycle" speed="5.56" length="3.05" shape="517.11,674.48 514.39,673.11"/>
    </edge>
    <edge id=":3218748987_2" function="internal">
        <lane id=":3218748987_2_0" index="0" allow="bicycle" speed="5.56" length="7.23" width="2.00" shape="516.51,670.43 512.93,676.71"/>
    </edge>
    <edge id=":3218748987_3" function="internal">
        <lane id=":3218748987_3_0" index="0" allow="bicycle" speed="5.56" length="3.96" width="2.00" shape="516.51,670.43 516.11,671.28 515.66,672.34 515.12,673.26 514.46,673.70"/>
    </edge>
    <edge id=":4093020452_0" function="internal">
        <lane id=":4093020452_0_0" index="0" disallow="tram rail_urban rail rail_electric rail_fast ship container cable_car subway aircraft wheelchair scooter drone" speed="9.90" length="8.34" width="5.00" shape="557.52,622.63 555.19,622.52 553.63,623.11 552.18,624.23 550.17,625.73"/>
    </edge>
    <edge id=":4093020452_1" function="internal">
        <lane id=":4093020452_1_0" index="0" disallow="tram rail_urban rail rail_electric rail_fast ship container cable_car subway aircraft wheelchair scooter drone" speed="8.22" length="7.74" shape="553.50,613.46 554.78,615.97 555.96,617.81 557.06,618.98 558.07,619.48"/>
    </edge>
    <edge id=":4093020452_2" function="internal">
        <lane id=":4093020452_2_0" index="0" disallow="tram rail_urban rail rail_electric rail_fast ship container cable_car subway aircraft wheelchair scooter drone" speed="8.57" length="14.08" width="5.00" shape="553.50,613.46 554.64,617.13 554.46,620.40 552.97,623.26 550.17,625.73"/>
    </edge>
    <edge id=":563954167_0" function="internal">
        <lane id=":563954167_0_0" index="0" allow="pedestrian bicycle" speed="2.89" length="2.92" width="2.00" shape="360.30,-0.25 360.97,-0.85 361.52,-0.97 361.94,-0.60 362.24,0.25"/>
    </edge>
    <edge id=":574300257_0" function="internal">
        <lane id=":574300257_0_0" index="0" allow="pedestrian bicycle" speed="5.56" length="5.31" width="2.00" shape="556.40,601.60 555.77,600.16 555.44,599.14 555.25,598.07 554.99,596.51"/>
    </edge>
    <edge id=":574300257_1" function="internal">
        <lane id=":574300257_1_0" index="0" allow="pedestrian bicycle" speed="2.89" length="2.92" width="2.00" shape="556.40,601.60 556.53,600.71 556.88,600.27 557.43,600.28 558.21,600.74"/>
    </edge>
    <edge id=":574300257_2" function="internal">
        <lane id=":574300257_2_0" index="0" allow="pedestrian bicycle" speed="5.56" length="4.77" width="2.00" shape="556.96,596.17 557.19,597.57 557.36,598.53 557.64,599.45 558.21,600.74"/>
    </edge>
    <edge id=":574300257_3" function="internal">
        <lane id=":574300257_3_0" index="0" allow="pedestrian bicycle" speed="2.89" length="2.92" width="2.00" shape="556.96,596.17 556.60,596.99 556.15,597.33 555.62,597.17 554.99,596.51"/>
    </edge>
    <edge id=":574300257_4" function="internal">
        <lane id=":574300257_4_0" index="0" allow="bicycle" speed="3.78" length="3.48" width="2.00" shape="553.74,599.09 554.48,599.04 554.93,598.59 555.11,597.75 554.99,596.51"/>
    </edge>
    <edge id=":574300257_5" function="internal">
        <lane id=":574300257_5_0" index="0" allow="bicycle" speed="5.56" length="4.86" width="2.00" shape="553.74,599.09 555.52,599.45 556.86,599.85 557.76,600.28 558.21,600.74"/>
    </edge>
    <edge id=":574300258_0" function="internal">
        <lane id=":574300258_0_0" index="0" allow="bicycle" speed="5.56" length="1.92" width="2.00" shape="563.51,614.28 563.67,614.82 563.73,615.21 563.67,615.60 563.51,616.14"/>
    </edge>
    <edge id=":574300258_1" function="internal">
        <lane id=":574300258_1_0" index="0" allow="pedestrian bicycle" speed="2.89" length="1.46" width="2.00" shape="563.51,614.28 563.27,615.15 562.87,615.54"/>
    </edge>
    <edge id=":574300258_3" function="internal">
        <lane id=":574300258_3_0" index="0" allow="pedestrian bicycle" speed="2.89" length="1.46" width="2.00" shape="562.87,615.54 562.32,615.46 561.61,614.91"/>
    </edge>
    <edge id=":574300258_2" function="internal">
        <lane id=":574300258_2_0" index="0" allow="bicycle" speed="5.56" length="0.64" width="2.00" shape="561.61,615.53 561.66,615.35 561.68,615.22 561.66,615.09 561.61,614.91"/>
    </edge>
    <edge id=":7492071964_0" function="internal">
        <lane id=":7492071964_0_0" index="0" allow="pedestrian delivery bicycle" speed="5.03" length="5.01" shape="558.77,674.16 558.86,672.78 558.49,671.72 557.65,670.95 556.35,670.50"/>
    </edge>
    <edge id=":7492071964_1" function="internal">
        <lane id=":7492071964_1_0" index="0" allow="pedestrian delivery bicycle" speed="5.56" length="6.16" shape="558.77,674.16 560.10,668.14"/>
    </edge>
    <edge id=":7492071970_0" function="internal">
        <lane id=":7492071970_0_0" index="0" allow="pedestrian delivery bicycle" speed="5.56" length="5.68" shape="538.04,666.84 536.31,666.65 534.88,666.83 533.75,667.38 532.91,668.29"/>
    </edge>
    <edge id=":7492071970_1" function="internal">
        <lane id=":7492071970_1_0" index="0" allow="pedestrian delivery bicycle" speed="5.56" length="6.42" shape="536.30,662.84 535.40,664.52 534.70,665.62 533.96,666.70 532.91,668.29"/>
    </edge>

    <edge id="-103362298#0" from="2617909678" to="1193596324" priority="11" type="highway.secondary" shape="560.70,621.56 564.43,622.15 576.35,625.13">
        <lane id="-103362298#0_0" index="0" disallow="tram rail_urban rail rail_electric rail_fast ship container cable_car subway aircraft wheelchair scooter drone" speed="13.89" length="12.05" shape="564.93,620.63 576.63,623.55"/>
        <param key="ref" value="D 94"/>
    </edge>
    <edge id="-103362298#1" from="4093020452" to="2617909678" priority="11" type="highway.secondary">
        <lane id="-103362298#1_0" index="0" disallow="tram rail_urban rail rail_electric rail_fast ship container cable_car subway aircraft wheelchair scooter drone" speed="13.89" length="0.20" shape="558.07,619.48 558.27,619.52"/>
        <param key="ref" value="D 94"/>
    </edge>
    <edge id="-103362304" from="1193596324" to="1193596298" priority="11" type="highway.secondary">
        <lane id="-103362304_0" index="0" disallow="tram rail_urban rail rail_electric rail_fast ship container cable_car subway aircraft wheelchair scooter drone" speed="13.89" length="34.96" shape="576.74,623.57 611.18,629.57"/>
        <param key="ref" value="D 94"/>
    </edge>
    <edge id="-1067258015" from="1117684374" to="1117684212" priority="1" type="highway.path" shape="665.76,596.75 657.00,577.33 649.26,553.60 635.13,548.22 626.69,549.61 606.62,562.71 601.76,562.77 597.56,561.13 595.45,557.56 595.41,553.40 599.23,544.88 605.32,535.74 611.24,526.85 617.66,508.66 606.95,482.82 584.07,448.93 578.76,425.82">
        <lane id="-1067258015_0" index="0" allow="pedestrian bicycle" speed="5.56" length="254.60" width="2.00" shape="664.85,597.16 656.06,577.69 648.46,554.37 635.03,549.25 627.06,550.56 606.92,563.71 601.57,563.77 596.87,561.93 594.45,557.84 594.41,553.19 598.35,544.40 604.49,535.19 610.34,526.40 616.59,508.69 606.07,483.29 583.13,449.33 577.78,426.04"/>
    </edge>
    <edge id="-180177517" from="1906079970" to="1117684358" priority="1" type="highway.path" shape="591.96,726.07 586.11,715.29 581.89,703.71 579.44,690.54 586.89,681.03 583.39,659.01 580.70,642.52 574.76,635.46 568.40,631.78 557.85,626.46">
        <lane id="-180177517_0" index="0" allow="pedestrian bicycle" speed="5.56" length="113.23" width="2.00" shape="591.08,726.55 585.20,715.70 580.93,703.97 578.37,690.28 585.84,680.76 582.41,659.17 579.76,642.95 574.10,636.23 567.92,632.66 560.63,628.99"/>
    </edge>
    <edge id="-282281278#0" from="574300257" to="563954167" priority="1" type="highway.cycleway" shape="556.54,599.57 553.16,580.21 553.22,545.38 553.29,521.04 552.54,507.39 549.57,497.35 540.97,474.41 537.71,465.74 532.61,454.08 527.31,443.99 522.66,438.70 516.09,434.31 506.44,428.95 498.39,421.91 451.53,373.60 426.84,346.54 412.85,326.70 402.23,304.92 382.28,250.56 377.44,236.18 363.76,195.58 358.52,173.76 356.29,161.33 353.94,148.90 350.88,127.32 349.76,107.41 348.86,72.02 349.46,61.16 354.05,27.11 356.01,22.50 356.61,19.70 358.49,10.92 361.27,0.00">
        <lane id="-282281278#0_0" index="0" allow="pedestrian bicycle" speed="5.56" length="661.25" width="2.00" shape="554.99,596.51 552.16,580.29 552.22,545.37 552.29,521.07 551.54,507.56 548.62,497.66 540.03,474.76 536.78,466.12 531.70,454.51 526.48,444.56 522.00,439.45 515.57,435.17 505.86,429.78 497.70,422.64 450.80,374.29 426.06,347.17 411.99,327.21 401.31,305.31 381.34,250.89 376.49,236.50 362.79,195.85 357.54,173.96 355.30,161.51 352.95,149.06 349.89,127.42 348.76,107.45 347.86,72.00 348.46,61.07 353.08,26.84 355.05,22.20 355.63,19.49 357.52,10.70 360.30,-0.25"/>
    </edge>
    <edge id="-282281278#1" from="574300258" to="574300257" priority="1" type="highway.cycleway" shape="562.76,615.21 560.07,607.02 556.54,599.57">
        <lane id="-282281278#1_0" index="0" allow="pedestrian bicycle" speed="5.56" length="14.32" width="2.00" shape="561.61,614.91 559.14,607.39 556.40,601.60"/>
    </edge>
    <edge id="-96460784#0" from="2617909678" to="574300258" priority="1" type="highway.cycleway">