<?xml version="1.0" encoding="UTF-8"?>

<!-- generated on 2024-09-03 01:38:24 by Eclipse SUMO netconvert Version 1.20.0
<configuration xmlns:xsi="http://www.w3.org/2001/XMLSchema-instance" xsi:noNamespaceSchemaLocation="http://sumo.dlr.de/xsd/netconvertConfiguration.xsd">

    <input>
        <osm-files value="train_files/roundabout/hard/osm_files/map(49).osm"/>
    </input>

    <output>
        <output-file value="train_files/roundabout/hard/outputs/map(49)_dict/map(49)/map(49).net.xml"/>
    </output>

    <projection>
        <proj.utm value="true"/>
    </projection>

    <building_defaults>
        <default.junctions.keep-clear value="false"/>
    </building_defaults>

</configuration>
-->

<net version="1.20" junctionCornerDetail="5" limitTurnSpeed="5.50" xmlns:xsi="http://www.w3.org/2001/XMLSchema-instance" xsi:noNamespaceSchemaLocation="http://sumo.dlr.de/xsd/net_file.xsd">

    <location netOffset="-469699.43,-5414269.67" convBoundary="0.00,0.00,540.36,873.67" origBoundary="2.586678,48.880665,2.594088,48.888521" projParameter="+proj=utm +zone=31 +ellps=WGS84 +datum=WGS84 +units=m +no_defs"/>

    <type id="highway.cycleway" priority="1" numLanes="1" speed="5.56" allow="bicycle" oneway="0" width="2.00"/>
    <type id="highway.footway" priority="1" numLanes="1" speed="2.78" allow="pedestrian" oneway="1" width="2.00"/>
    <type id="highway.residential" priority="3" numLanes="1" speed="13.89" disallow="tram rail_urban rail rail_electric rail_fast ship container cable_car subway aircraft wheelchair scooter drone" oneway="0"/>
    <type id="highway.secondary" priority="11" numLanes="1" speed="27.78" disallow="tram rail_urban rail rail_electric rail_fast ship container cable_car subway aircraft wheelchair scooter drone" oneway="0"/>
    <type id="highway.service" priority="1" numLanes="1" speed="5.56" allow="pedestrian delivery bicycle" oneway="0"/>

    <edge id=":1354991828_0" function="internal">
        <lane id=":1354991828_0_0" index="0" allow="pedestrian delivery bicycle" speed="5.56" length="13.19" shape="229.81,346.93 220.74,356.52"/>
    </edge>
    <edge id=":1354991828_1" function="internal">
        <lane id=":1354991828_1_0" index="0" allow="bicycle" speed="5.56" length="19.39" width="1.50" shape="229.19,346.35 224.30,350.91 221.80,351.71 221.69,348.74 223.95,342.00"/>
    </edge>
    <edge id=":1354991828_2" function="internal">
        <lane id=":1354991828_2_0" index="0" allow="pedestrian delivery bicycle" speed="3.65" length="4.67" shape="229.81,346.93 228.40,347.25 227.54,347.00 227.24,346.16 227.48,344.74"/>
    </edge>
    <edge id=":1354991828_3" function="internal">
        <lane id=":1354991828_3_0" index="0" allow="bicycle" speed="3.88" length="5.93" width="1.50" shape="225.21,342.89 224.53,344.93 224.57,345.83 225.35,345.56 226.86,344.15"/>
    </edge>
    <edge id=":1354991828_4" function="internal">
        <lane id=":1354991828_4_0" index="0" allow="bicycle" speed="5.56" length="14.89" width="1.50" shape="225.21,342.89 224.31,346.56 223.87,350.37 223.14,353.99 221.36,357.10"/>
    </edge>
    <edge id=":1354991828_5" function="internal">
        <lane id=":1354991828_5_0" index="0" allow="bicycle" speed="2.52" length="2.25" width="1.50" shape="225.21,342.89 224.56,343.14 224.14,343.08 223.94,342.70 223.95,342.00"/>
    </edge>
    <edge id=":1354991828_6" function="internal">
        <lane id=":1354991828_6_0" index="0" allow="bicycle" speed="5.56" length="13.36" width="1.50" shape="217.79,353.75 219.93,351.02 221.45,348.25 222.69,345.28 223.95,342.00"/>
    </edge>
    <edge id=":1354991828_7" function="internal">
        <lane id=":1354991828_7_0" index="0" allow="pedestrian delivery bicycle" speed="5.56" length="13.20" shape="218.41,354.33 227.48,344.74"/>
    </edge>
    <edge id=":1354991828_8" function="internal">
        <lane id=":1354991828_8_0" index="0" allow="pedestrian delivery bicycle" speed="3.65" length="4.67" shape="218.41,354.33 219.81,354.00 220.67,354.25 220.98,355.09 220.74,356.52"/>
    </edge>
    <edge id=":2635483006_0" function="internal">
        <lane id=":2635483006_0_0" index="0" allow="bicycle" speed="5.56" length="8.69" width="1.50" shape="317.22,167.18 314.94,165.88 313.11,165.15 311.72,164.12 310.77,161.95"/>
    </edge>
    <edge id=":2635483006_1" function="internal">
        <lane id=":2635483006_1_0" index="0" allow="bicycle" speed="5.90" length="8.05" width="1.50" shape="317.22,167.18 315.26,165.41 314.23,163.71 314.11,162.06 314.91,160.48"/>
    </edge>
    <edge id=":2635483006_2" function="internal">
        <lane id=":2635483006_2_0" index="0" allow="bicycle" speed="3.76" length="2.73" width="1.50" shape="317.22,167.18 316.74,166.98 316.19,167.07 315.59,167.45 314.93,168.12"/>
    </edge>
    <edge id=":2635483006_3" function="internal">
        <lane id=":2635483006_3_0" index="0" allow="bicycle" speed="2.88" length="2.50" width="1.50" shape="317.22,167.18 317.34,166.42 317.65,166.04 318.12,166.06 318.78,166.47"/>
    </edge>
    <edge id=":2635483006_4" function="internal">
        <lane id=":2635483006_4_0" index="0" allow="bicycle" speed="5.37" length="3.00" width="1.50" shape="318.71,163.58 318.42,164.22 318.42,164.95 318.57,165.72 318.78,166.47"/>
    </edge>
    <edge id=":2635483006_5" function="internal">
        <lane id=":2635483006_5_0" index="0" disallow="tram rail_urban rail rail_electric rail_fast ship container cable_car subway aircraft wheelchair scooter drone" speed="8.33" length="5.89" shape="318.05,163.04 314.28,167.56"/>
    </edge>
    <edge id=":2635483006_6" function="internal">
        <lane id=":2635483006_6_0" index="0" allow="bicycle" speed="5.62" length="4.84" width="1.50" shape="317.39,162.50 315.10,164.77 313.58,165.32"/>
    </edge>
    <edge id=":2635483006_14" function="internal">
        <lane id=":2635483006_14_0" index="0" allow="bicycle" speed="5.62" length="4.83" width="1.50" shape="313.58,165.32 313.24,165.44 311.79,164.50 310.77,161.95"/>
    </edge>
    <edge id=":2635483006_7" function="internal">
        <lane id=":2635483006_7_0" index="0" allow="bicycle" speed="3.71" length="4.19" width="1.50" shape="311.99,160.65 312.40,161.64 313.03,161.94 313.86,161.56 314.91,160.48"/>
    </edge>
    <edge id=":2635483006_8" function="internal">
        <lane id=":2635483006_8_0" index="0" allow="bicycle" speed="5.56" length="9.41" width="1.50" shape="311.99,160.65 313.31,162.79 315.34,163.57 317.38,164.35 318.78,166.47"/>
    </edge>
    <edge id=":2635483006_9" function="internal">
        <lane id=":2635483006_9_0" index="0" allow="bicycle" speed="6.95" length="8.02" width="1.50" shape="311.99,160.65 314.93,168.12"/>
    </edge>
    <edge id=":2635483006_10" function="internal">
        <lane id=":2635483006_10_0" index="0" allow="bicycle" speed="2.65" length="2.60" width="1.50" shape="311.99,160.65 312.17,161.43 312.03,161.91 311.56,162.08 310.77,161.95"/>
    </edge>
    <edge id=":2635483006_11" function="internal">
        <lane id=":2635483006_11_0" index="0" allow="bicycle" speed="5.43" length="3.12" width="1.50" shape="311.21,164.93 311.45,164.28 311.32,163.52 311.03,162.72 310.77,161.95"/>
    </edge>
    <edge id=":2635483006_12" function="internal">
        <lane id=":2635483006_12_0" index="0" disallow="tram rail_urban rail rail_electric rail_fast ship container cable_car subway aircraft wheelchair scooter drone" speed="8.33" length="5.81" shape="311.85,165.48 315.57,161.02"/>
    </edge>
    <edge id=":2635483006_13" function="internal">
        <lane id=":2635483006_13_0" index="0" allow="bicycle" speed="5.48" length="4.73" width="1.50" shape="312.50,166.03 314.66,163.99 316.32,163.42"/>
    </edge>
    <edge id=":2635483006_15" function="internal">
        <lane id=":2635483006_15_0" index="0" allow="bicycle" speed="5.48" length="4.18" width="1.50" shape="316.32,163.42 316.43,163.38 317.81,164.21 318.78,166.47"/>
    </edge>
    <edge id=":2635483050_0" function="internal">
        <lane id=":2635483050_0_0" index="0" allow="bicycle" speed="2.50" length="2.19" width="1.50" shape="332.84,126.37 333.42,126.03 333.84,126.03 334.10,126.36 334.19,127.03"/>
    </edge>
    <edge id=":2635485733_0" function="internal">
        <lane id=":2635485733_0_0" index="0" disallow="tram rail_urban rail rail_electric rail_fast ship container cable_car subway aircraft wheelchair scooter drone" speed="8.33" length="4.68" shape="226.55,284.31 225.79,285.45 225.39,286.32 225.18,287.26 224.94,288.63"/>
    </edge>
    <edge id=":2635485733_1" function="internal">
        <lane id=":2635485733_1_0" index="0" disallow="tram rail_urban rail rail_electric rail_fast ship container cable_car subway aircraft wheelchair scooter drone" speed="3.65" length="4.67" shape="226.55,284.31 225.20,284.81 224.31,284.67 223.90,283.87 223.96,282.43"/>
    </edge>
    <edge id=":2635485733_2" function="internal">
        <lane id=":2635485733_2_0" index="0" disallow="tram rail_urban rail rail_electric rail_fast ship container cable_car subway aircraft wheelchair scooter drone" speed="8.33" length="7.44" shape="219.70,288.49 221.17,286.87 222.00,285.61 222.75,284.28 223.96,282.43"/>
    </edge>
    <edge id=":2635485733_3" function="internal">
        <lane id=":2635485733_3_0" index="0" disallow="tram rail_urban rail rail_electric rail_fast ship container cable_car subway aircraft wheelchair scooter drone" speed="5.16" length="9.16" shape="219.70,288.49 222.43,286.14 224.22,285.37 225.05,286.20 224.94,288.63"/>
    </edge>
    <edge id=":266121180_0" function="internal">
        <lane id=":266121180_0_0" index="0" disallow="tram rail_urban rail rail_electric rail_fast ship container cable_car subway aircraft wheelchair scooter drone" speed="3.65" length="4.67" shape="1.01,553.06 -0.42,553.20 -1.24,552.84 -1.44,551.96 -1.01,550.59"/>
    </edge>
    <edge id=":266121596_0" function="internal">
        <lane id=":266121596_0_0" index="0" disallow="tram rail_urban rail rail_electric rail_fast ship container cable_car subway aircraft wheelchair scooter drone" speed="8.33" length="1.18" shape="188.99,390.31 188.85,390.62 188.75,390.84 188.63,391.05 188.42,391.33"/>
    </edge>
    <edge id=":266121596_1" function="internal">
        <lane id=":266121596_1_0" index="0" disallow="tram rail_urban rail rail_electric rail_fast ship container cable_car subway aircraft wheelchair scooter drone" speed="8.33" length="0.20" shape="185.90,389.36 185.93,389.31 185.94,389.27 185.94,389.23 185.95,389.17"/>
    </edge>
    <edge id=":266121752_0" function="internal">
        <lane id=":266121752_0_0" index="0" disallow="tram rail_urban rail rail_electric rail_fast ship container cable_car subway aircraft wheelchair scooter drone" speed="8.33" length="8.16" shape="195.81,356.65 194.05,354.84 192.83,353.08 192.15,351.38 192.00,349.72"/>
    </edge>
    <edge id=":266121752_1" function="internal">
        <lane id=":266121752_1_0" index="0" disallow="tram rail_urban rail rail_electric rail_fast ship container cable_car subway aircraft wheelchair scooter drone" speed="8.33" length="8.37" shape="191.78,358.09 192.00,349.72"/>
    </edge>
    <edge id=":266121929_0" function="internal">
        <lane id=":266121929_0_0" index="0" disallow="tram rail_urban rail rail_electric rail_fast ship container cable_car subway aircraft wheelchair scooter drone" speed="8.33" length="8.18" shape="206.98,309.01 211.12,301.96"/>
    </edge>
    <edge id=":266121929_1" function="internal">
        <lane id=":266121929_1_0" index="0" disallow="tram rail_urban rail rail_electric rail_fast ship container cable_car subway aircraft wheelchair scooter drone" speed="7.78" length="7.71" shape="206.98,309.01 207.96,307.77 209.41,306.83 211.32,306.21 213.69,305.90"/>
    </edge>
    <edge id=":266121931_0" function="internal">
        <lane id=":266121931_0_0" index="0" disallow="tram rail_urban rail rail_electric rail_fast ship container cable_car subway aircraft wheelchair scooter drone" speed="8.33" length="7.38" shape="224.05,304.68 225.14,311.97"/>
    </edge>
    <edge id=":266121931_1" function="internal">
        <lane id=":266121931_1_0" index="0" disallow="tram rail_urban rail rail_electric rail_fast ship container cable_car subway aircraft wheelchair scooter drone" speed="7.55" length="7.24" shape="220.38,306.96 222.18,307.81 223.57,308.93 224.56,310.32 225.14,311.97"/>
    </edge>
    <edge id=":266121933_0" function="internal">
        <lane id=":266121933_0_0" index="0" disallow="tram rail_urban rail rail_electric rail_fast ship container cable_car subway aircraft wheelchair scooter drone" speed="8.33" length="10.70" shape="212.11,355.36 205.35,363.65"/>
    </edge>
    <edge id=":266121933_1" function="internal">
        <lane id=":266121933_1_0" index="0" disallow="tram rail_urban rail rail_electric rail_fast ship container cable_car subway aircraft wheelchair scooter drone" speed="8.33" length="10.87" shape="212.11,355.36 210.19,357.51 208.00,358.99 205.53,359.79 202.79,359.92"/>
    </edge>
    <edge id=":266317006_0" function="internal">
        <lane id=":266317006_0_0" index="0" allow="pedestrian delivery bicycle" speed="9.72" length="10.98" shape="246.20,325.00 244.17,327.31 243.10,329.42 242.14,331.64 240.44,334.26"/>
    </edge>
    <edge id=":266317006_1" function="internal">
        <lane id=":266317006_1_0" index="0" disallow="tram rail_urban rail rail_electric rail_fast ship container cable_car subway aircraft wheelchair scooter drone" speed="13.89" length="11.53" shape="246.20,325.00 243.66,326.88 241.33,327.82 238.77,328.32 235.56,328.86"/>
    </edge>
    <edge id=":266317006_2" function="internal">
        <lane id=":266317006_2_0" index="0" allow="pedestrian delivery bicycle" speed="4.76" length="7.24" shape="237.95,332.25 239.18,330.32 239.20,329.11 237.99,328.63 235.56,328.86"/>
    </edge>
    <edge id=":266317006_3" function="internal">
        <lane id=":266317006_3_0" index="0" allow="pedestrian delivery bicycle" speed="3.65" length="4.67" shape="237.95,332.25 239.32,331.82 240.20,332.01 240.57,332.82 240.44,334.26"/>
    </edge>
    <edge id=":319194106_0" function="internal">
        <lane id=":319194106_0_0" index="0" disallow="tram rail_urban rail rail_electric rail_fast ship container cable_car subway aircraft wheelchair scooter drone" speed="3.65" length="4.67" shape="489.50,-1.33 490.94,-1.33 491.71,-0.88 491.82,0.00 491.26,1.33"/>
    </edge>
    <edge id=":483176865_0" function="internal">
        <lane id=":483176865_0_0" index="0" allow="bicycle" speed="6.95" length="6.28" width="1.50" shape="233.15,330.20 231.56,330.70 230.27,331.51 229.28,332.64 228.59,334.08"/>
    </edge>
    <edge id=":483176865_1" function="internal">
        <lane id=":483176865_1_0" index="0" disallow="tram rail_urban rail rail_electric rail_fast ship container cable_car subway aircraft wheelchair scooter drone" speed="13.89" length="5.86" shape="232.98,329.37 231.28,329.73 230.11,329.99 228.94,330.18 227.21,330.32"/>
    </edge>
    <edge id=":483176865_2" function="internal">
        <lane id=":483176865_2_0" index="0" allow="bicycle" speed="4.64" length="5.46" width="1.50" shape="232.82,328.53 231.01,328.69 229.83,328.34 229.29,327.47 229.39,326.08"/>
    </edge>
    <edge id=":483176865_3" function="internal">
        <lane id=":483176865_3_0" index="0" allow="bicycle" speed="5.56" length="7.96" width="1.50" shape="230.84,326.45 228.59,334.08"/>
    </edge>
    <edge id=":483176865_4" function="internal">
        <lane id=":483176865_4_0" index="0" allow="bicycle" speed="6.05" length="6.31" width="1.50" shape="230.84,326.45 230.18,328.46 229.37,329.92 228.39,330.83 227.26,331.17"/>
    </edge>
    <edge id=":483176865_5" function="internal">
        <lane id=":483176865_5_0" index="0" allow="bicycle" speed="2.50" length="2.19" width="1.50" shape="230.84,326.45 230.34,326.90 229.93,326.99 229.61,326.72 229.39,326.08"/>
    </edge>
    <edge id=":483176865_6" function="internal">
        <lane id=":483176865_6_0" index="0" allow="bicycle" speed="3.34" length="2.80" width="1.50" shape="227.17,333.60 227.46,332.81 227.71,332.01 227.71,331.39 227.26,331.17"/>
    </edge>
    <edge id=":483176865_7" function="internal">
        <lane id=":483176865_7_0" index="0" allow="bicycle" speed="5.56" length="7.84" width="1.50" shape="227.17,333.60 229.39,326.08"/>
    </edge>
    <edge id=":483176865_8" function="internal">
        <lane id=":483176865_8_0" index="0" allow="bicycle" speed="2.50" length="2.19" width="1.50" shape="227.17,333.60 227.71,333.19 228.12,333.13 228.42,333.43 228.59,334.08"/>
    </edge>
    <edge id=":483255203_0" function="internal">
        <lane id=":483255203_0_0" index="0" allow="bicycle" speed="2.89" length="2.92" width="2.00" shape="423.24,872.75 423.73,873.51 423.76,874.07 423.33,874.43 422.44,874.59"/>
    </edge>
    <edge id=":5380381002_0" function="internal">
        <lane id=":5380381002_0_0" index="0" disallow="tram rail_urban rail rail_electric rail_fast ship container cable_car subway aircraft wheelchair scooter drone" speed="13.89" length="5.17" shape="253.71,317.10 250.27,320.95"/>
    </edge>
    <edge id=":5380381005_0" function="internal">
        <lane id=":5380381005_0_0" index="0" allow="bicycle" speed="5.56" length="8.71" width="1.50" shape="230.06,290.88 229.51,293.40 229.29,295.16 229.32,296.93 229.52,299.51"/>
    </edge>
    <edge id=":5380381005_1" function="internal">
        <lane id=":5380381005_1_0" index="0" allow="bicycle" speed="2.50" length="1.10" width="1.50" shape="230.06,290.88 229.57,291.34 229.16,291.44"/>
    </edge>
    <edge id=":5380381005_4" function="internal">
        <lane id=":5380381005_4_0" index="0" allow="bicycle" speed="2.50" length="1.10" width="1.50" shape="229.16,291.44 228.84,291.17 228.60,290.54"/>
    </edge>
    <edge id=":5380381005_2" function="internal">
        <lane id=":5380381005_2_0" index="0" allow="bicycle" speed="5.56" length="9.01" width="1.50" shape="228.01,299.47 227.81,296.80 227.79,294.96 228.03,293.14 228.60,290.54"/>
    </edge>
    <edge id=":5380381005_3" function="internal">
        <lane id=":5380381005_3_0" index="0" allow="bicycle" speed="2.50" length="0.90" width="1.50" shape="228.01,299.47 228.41,298.91 228.60,298.82"/>
    </edge>
    <edge id=":5380381005_5" function="internal">
        <lane id=":5380381005_5_0" index="0" allow="bicycle" speed="2.50" length="1.31" width="1.50" shape="228.60,298.82 228.79,298.73 229.16,298.93 229.52,299.51"/>
    </edge>
    <edge id=":6195782016_0" function="internal">
        <lane id=":6195782016_0_0" index="0" disallow="tram rail_urban rail rail_electric rail_fast ship container cable_car subway aircraft wheelchair scooter drone" speed="8.33" length="3.69" shape="217.44,291.64 217.99,290.69 218.37,290.03 218.81,289.43 219.55,288.63"/>
    </edge>
    <edge id=":6195782017_0" function="internal">
        <lane id=":6195782017_0_0" index="0" disallow="tram rail_urban rail rail_electric rail_fast ship container cable_car subway aircraft wheelchair scooter drone" speed="8.33" length="5.71" shape="224.91,288.77 223.83,294.38"/>
    </edge>
    <edge id=":7419215788_0" function="internal">
        <lane id=":7419215788_0_0" index="0" allow="pedestrian delivery bicycle" speed="5.56" length="5.10" shape="180.44,393.07 179.30,392.07 178.57,391.34 177.88,390.56 176.88,389.43"/>
    </edge>
    <edge id=":7419215788_1" function="internal">
        <lane id=":7419215788_1_0" index="0" allow="pedestrian delivery bicycle" speed="3.65" length="1.44" shape="180.44,393.07 180.03,391.69"/>
    </edge>
    <edge id=":7419215788_4" function="internal">
        <lane id=":7419215788_4_0" index="0" allow="pedestrian delivery bicycle" speed="3.65" length="3.23" shape="180.03,391.69 180.23,390.82 181.05,390.46 182.48,390.61"/>
    </edge>
    <edge id=":7419215788_2" function="internal">
        <lane id=":7419215788_2_0" index="0" allow="pedestrian delivery bicycle" speed="5.56" length="4.65" shape="179.24,387.28 180.16,388.31 180.78,389.02 181.45,389.70 182.48,390.61"/>
    </edge>
    <edge id=":7419215788_3" function="internal">
        <lane id=":7419215788_3_0" index="0" allow="pedestrian delivery bicycle" speed="3.65" length="1.44" shape="179.24,387.28 179.46,388.70"/>
    </edge>
    <edge id=":7419215788_5" function="internal">
        <lane id=":7419215788_5_0" index="0" allow="pedestrian delivery bicycle" speed="3.65" length="3.23" shape="179.46,388.70 179.14,389.54 178.27,389.78 176.88,389.43"/>
    </edge>
    <edge id=":7419215789_0" function="internal">
        <lane id=":7419215789_0_0" index="0" disallow="tram rail_urban rail rail_electric rail_fast ship container cable_car subway aircraft wheelchair scooter drone" speed="8.33" length="9.08" shape="188.23,391.57 182.49,398.61"/>
    </edge>
    <edge id=":7419215789_1" function="internal">
        <lane id=":7419215789_1_0" index="0" allow="pedestrian delivery bicycle" speed="6.40" length="3.63" shape="188.23,391.57 186.33,393.50 185.49,393.90"/>
    </edge>
    <edge id=":7419215789_7" function="internal">
        <lane id=":7419215789_7_0" index="0" allow="pedestrian delivery bicycle" speed="6.40" length="5.32" shape="185.49,393.90 184.42,394.41 182.51,394.31 180.59,393.20"/>
    </edge>
    <edge id=":7419215789_2" function="internal">
        <lane id=":7419215789_2_0" index="0" allow="pedestrian delivery bicycle" speed="4.42" length="3.70" shape="182.63,390.73 183.32,391.08 184.07,391.01 184.86,390.51 185.71,389.60"/>
    </edge>
    <edge id=":7419215789_3" function="internal">
        <lane id=":7419215789_3_0" index="0" allow="pedestrian delivery bicycle" speed="6.41" length="9.07" shape="182.63,390.73 184.14,392.50 184.62,394.40 184.07,396.44 182.49,398.61"/>
    </edge>
    <edge id=":7419215789_4" function="internal">
        <lane id=":7419215789_4_0" index="0" allow="pedestrian delivery bicycle" speed="3.65" length="4.67" shape="182.63,390.73 183.05,392.12 182.84,392.99 182.03,393.35 180.59,393.20"/>
    </edge>
    <edge id=":7419215789_5" function="internal">
        <lane id=":7419215789_5_0" index="0" allow="pedestrian delivery bicycle" speed="4.52" length="3.96" shape="179.96,396.64 180.78,395.59 181.15,394.66 181.09,393.87 180.59,393.20"/>
    </edge>
    <edge id=":7419215789_6" function="internal">
        <lane id=":7419215789_6_0" index="0" disallow="tram rail_urban rail rail_electric rail_fast ship container cable_car subway aircraft wheelchair scooter drone" speed="8.33" length="9.09" shape="179.96,396.64 185.71,389.60"/>
    </edge>
    <edge id=":7419215799_0" function="internal">
        <lane id=":7419215799_0_0" index="0" allow="pedestrian delivery bicycle" speed="5.56" length="8.19" shape="161.80,374.50 155.93,368.79"/>
    </edge>
    <edge id=":7419215799_1" function="internal">
        <lane id=":7419215799_1_0" index="0" allow="pedestrian delivery bicycle" speed="5.56" length="9.20" shape="161.80,374.50 160.50,372.68 160.19,370.72 160.87,368.63 162.55,366.41"/>
    </edge>
    <edge id=":7419215799_2" function="internal">
        <lane id=":7419215799_2_0" index="0" allow="pedestrian delivery bicycle" speed="3.65" length="4.67" shape="161.80,374.50 161.50,373.09 161.77,372.24 162.62,371.94 164.03,372.21"/>
    </edge>
    <edge id=":7419215799_3" function="internal">
        <lane id=":7419215799_3_0" index="0" allow="pedestrian delivery bicycle" speed="4.68" length="4.12" shape="164.87,368.62 164.00,369.70 163.57,370.66 163.58,371.49 164.03,372.21"/>
    </edge>
    <edge id=":7419215799_4" function="internal">
        <lane id=":7419215799_4_0" index="0" allow="pedestrian delivery bicycle" speed="5.56" length="10.22" shape="164.87,368.62 162.67,370.35 160.45,370.96 158.20,370.44 155.93,368.79"/>
    </edge>
    <edge id=":7419215799_5" function="internal">
        <lane id=":7419215799_5_0" index="0" allow="pedestrian delivery bicycle" speed="3.65" length="4.67" shape="164.87,368.62 163.46,368.93 162.61,368.67 162.30,367.83 162.55,366.41"/>
    </edge>
    <edge id=":7419215799_6" function="internal">
        <lane id=":7419215799_6_0" index="0" allow="pedestrian delivery bicycle" speed="5.03" length="5.01" shape="158.17,366.50 159.28,367.31 160.38,367.56 161.47,367.26 162.55,366.41"/>
    </edge>
    <edge id=":7419215799_7" function="internal">
        <lane id=":7419215799_7_0" index="0" allow="pedestrian delivery bicycle" speed="5.56" length="8.19" shape="158.17,366.50 164.03,372.21"/>
    </edge>
    <edge id=":7419215799_8" function="internal">
        <lane id=":7419215799_8_0" index="0" allow="pedestrian delivery bicycle" speed="3.65" length="4.67" shape="158.17,366.50 158.47,367.91 158.20,368.76 157.35,369.05 155.93,368.79"/>
    </edge>
    <edge id=":7419215802_0" function="internal">
        <lane id=":7419215802_0_0" index="0" allow="pedestrian delivery bicycle" speed="3.65" length="4.67" shape="144.50,357.69 144.19,356.28 144.46,355.43 145.31,355.13 146.73,355.39"/>
    </edge>
    <edge id=":7419215803_0" function="internal">
        <lane id=":7419215803_0_0" index="0" allow="pedestrian delivery bicycle" speed="3.65" length="4.67" shape="164.18,372.35 164.48,373.76 164.21,374.61 163.36,374.90 161.94,374.64"/>
    </edge>
    <edge id=":8146717025_0" function="internal">
        <lane id=":8146717025_0_0" index="0" allow="bicycle" speed="5.56" length="3.30" width="2.00" shape="199.36,389.18 198.83,389.96 198.23,390.33 197.62,390.71 197.09,391.48"/>
    </edge>
    <edge id=":8146717025_1" function="internal">
        <lane id=":8146717025_1_0" index="0" allow="pedestrian delivery bicycle" speed="3.65" length="2.34" shape="198.81,388.95 197.60,389.75 196.71,389.81"/>
    </edge>
    <edge id=":8146717025_3" function="internal">
        <lane id=":8146717025_3_0" index="0" allow="pedestrian delivery bicycle" speed="3.65" length="2.34" shape="196.71,389.81 196.13,389.13 195.86,387.71"/>
    </edge>
    <edge id=":8146717025_2" function="internal">
        <lane id=":8146717025_2_0" index="0" allow="bicycle" speed="5.56" length="3.30" width="2.00" shape="195.25,390.71 195.43,389.78 195.28,389.09 195.12,388.40 195.31,387.48"/>
    </edge>
    <edge id=":8485948535_0" function="internal">
        <lane id=":8485948535_0_0" index="0" disallow="tram rail_urban rail rail_electric rail_fast ship container cable_car subway aircraft wheelchair scooter drone" speed="8.33" length="0.30" shape="488.82,2.95 488.57,3.12"/>
    </edge>
    <edge id=":8485948535_1" function="internal">
        <lane id=":8485948535_1_0" index="0" disallow="tram rail_urban rail rail_electric rail_fast ship container cable_car subway aircraft wheelchair scooter drone" speed="8.33" length="0.30" shape="486.80,0.45 487.05,0.29"/>
    </edge>
    <edge id=":8485948537_0" function="internal">
        <lane id=":8485948537_0_0" index="0" disallow="tram rail_urban rail rail_electric rail_fast ship container cable_car subway aircraft wheelchair scooter drone" speed="8.33" length="0.30" shape="320.60,160.00 320.41,160.23"/>
    </edge>
    <edge id=":8485948537_1" function="internal">
        <lane id=":8485948537_1_0" index="0" disallow="tram rail_urban rail rail_electric rail_fast ship container cable_car subway aircraft wheelchair scooter drone" speed="8.33" length="0.30" shape="317.96,158.17 318.15,157.94"/>
    </edge>
    <edge id=":8485948538_0" function="internal">
        <lane id=":8485948538_0_0" index="0" disallow="tram rail_urban rail rail_electric rail_fast ship container cable_car subway aircraft wheelchair scooter drone" speed="8.33" length="0.28" shape="314.10,167.78 314.28,167.56"/>
    </edge>
    <edge id=":8485948538_1" function="internal">
        <lane id=":8485948538_1_0" index="0" disallow="tram rail_urban rail rail_electric rail_fast ship container cable_car subway aircraft wheelchair scooter drone" speed="8.33" length="0.28" shape="311.85,165.48 311.67,165.69"/>
    </edge>
    <edge id=":9044208930_0" function="internal">
        <lane id=":9044208930_0_0" index="0" disallow="tram rail_urban rail rail_electric rail_fast ship container cable_car subway aircraft wheelchair scooter drone" speed="6.31" length="6.16" shape="227.01,330.34 225.58,330.65 224.41,331.40 223.47,332.60 222.78,334.25"/>
    </edge>
    <edge id=":9044208930_1" function="internal">
        <lane id=":9044208930_1_0" index="0" disallow="tram rail_urban rail rail_electric rail_fast ship container cable_car subway aircraft wheelchair scooter drone" speed="8.33" length="8.92" shape="225.24,325.68 222.78,334.25"/>
    </edge>

    <edge id="-24477232#0" from="7419215789" to="266121596" priority="11" type="highway.secondary">
        <lane id="-24477232#0_0" index="0" disallow="tram rail_urban rail rail_electric rail_fast ship container cable_car subway aircraft wheelchair scooter drone" speed="8.33" length="0.31" shape="185.71,389.60 185.90,389.36"/>
        <param key="ref" value="D 224"/>
    </edge>
    <edge id="-24477232#1" from="266121180" to="7419215789" priority="11" type="highway.secondary" shape="0.00,551.82 2.90,549.45 7.22,545.94 55.30,506.72 62.82,500.59 100.68,472.96 106.36,468.45 125.02,451.32 138.91,438.38 146.38,431.34 153.35,424.82 157.98,420.55 171.37,408.21 182.77,395.97 184.19,394.14">
        <lane id="-24477232#1_0" index="0" disallow="tram rail_urban rail rail_electric rail_fast ship container cable_car subway aircraft wheelchair scooter drone" speed="8.33" length="237.92" shape="-1.01,550.59 1.89,548.21 6.21,544.70 54.29,505.48 61.84,499.32 99.71,471.69 105.32,467.23 123.93,450.14 137.82,437.21 145.28,430.17 152.26,423.65 156.90,419.37 170.24,407.08 179.96,396.64"/>
        <param key="ref" value="D 224"/>
    </edge>
    <edge id="-24492058#0" from="8485948538" to="2635485733" priority="11" type="highway.secondary" shape="313.07,166.52 299.78,182.01 285.85,199.74 268.54,223.80 226.11,282.19">