<?xml version="1.0" encoding="UTF-8"?>

<!-- generated on 2024-09-03 01:38:27 by Eclipse SUMO duarouter Version 1.20.0
<configuration xmlns:xsi="http://www.w3.org/2001/XMLSchema-instance" xsi:noNamespaceSchemaLocation="http://sumo.dlr.de/xsd/duarouterConfiguration.xsd">

    <input>
        <net-file value="train_files/roundabout/hard/outputs/map(57)_dict/map(57)/map(57).net.xml"/>
        <route-files value="train_files/roundabout/hard/outputs/map(57)_dict/map(57)/map(57).trips.xml"/>
    </input>

    <output>
        <output-file value="train_files/roundabout/hard/outputs/map(57)_dict/map(57)/map(57).rou.xml"/>
    </output>

    <report>
        <ignore-errors value="true"/>
    </report>

</configuration>
-->

<routes xmlns:xsi="http://www.w3.org/2001/XMLSchema-instance" xsi:noNamespaceSchemaLocation="http://sumo.dlr.de/xsd/routes_file.xsd">
    <vehicle id="0" depart="0.00">
        <route edges="29110230 -29110230"/>
    </vehicle>
    <vehicle id="3" depart="2.16">
        <route edges="548557132#0 548557132#1 548557132#2 506103816 196866277 196866280#0 196866280#1 278585351 24978850#0 24978850#1 -29110230"/>
    </vehicle>
    <vehicle id="4" depart="2.88">
        <route edges="19922965#0 19922965#1 19922965#2 19922965#3 640112944 640112943 278585351 24978850#0 24978850#1 -29110230"/>
    </vehicle>
    <vehicle id="5" depart="3.60">
        <route edges="10345998 19923012 19923016"/>
    </vehicle>
    <vehicle id="6" depart="4.32">
        <route edges="-432864793#2 -432864793#1 -432864793#0 110919688#0 110919688#1 278585351 19922827#0 19922827#1 196868483 506103815 196868480 506103816 19922980#0 19922980#1 19922980#2"/>
    </vehicle>
    <vehicle id="11" depart="7.92">
        <route edges="19922965#0 19922965#1 19922965#2 19922965#3 640112944 640112943 278585351 19922827#0 19922827#1 196868483 506103815 196868480 506103816 19922980#0 19922980#1 19922980#2"/>
    </vehicle>
    <vehicle id="13" depart="9.36">
        <route edges="-432864793#2 -432864793#1 -432864793#0 110919688#0 110919688#1 278585351 24978850#0 24978850#1 -29110230"/>
    </vehicle>
    <vehicle id="16" depart="11.52">
        <route edges="19923100#0 19923100#1 640125752 196868480 506103816 196866277 24978874#0 24978874#1 432864794 432864793#0 432864793#1 432864793#2"/>
    </vehicle>
    <vehicle id="19" depart="13.68">
        <route edges="548557132#0 548557132#1 548557132#2 506103816 196866277 196866280#0 196866280#1 278585351 19922827#0 19922827#1 949812550 19923064#0 19923064#1"/>
    </vehicle>
    <vehicle id="20" depart="14.40">
        <route edges="29110230 -29110230"/>
    </vehicle>
    <vehicle id="22" depart="15.84">
        <route edges="-432864793#2 -432864793#1 -432864793#0 110919688#0 110919688#1 278585351 19922827#0 19922827#1 196868483 506103815 196868480 506103816 19922980#0 19922980#1 19922980#2"/>
    </vehicle>
    <vehicle id="23" depart="16.56">
        <route edges="-432864793#2 -432864793#1 -432864793#0 110919688#0 110919688#1 278585351 19922827#0 19922827#1 196868483 506103815 196868480 506103816 19922980#0 19922980#1 19922980#2"/>
    </vehicle>
    <vehicle id="25" depart="18.00">
        <route edges="19922965#0 19922965#1 19922965#2 19922965#3 640112944 640112943 278585351 19922827#0 19922827#1 196868483 506103815 196868480 506103816 19922980#0 19922980#1 19922980#2"/>
    </vehicle>
    <vehicle id="27" depart="19.44">
        <route edges="29110230 675974617 110919690 675974615#0 675974615#1 949812550 19923064#0 19923064#1"/>
    </vehicle>
    <vehicle id="30" depart="21.60">
        <route edges="548557132#0 548557132#1 548557132#2 506103816 196866277 196866280#0 196866280#1 278585351 19922827#0 19922827#1 949812550 19923064#0 19923064#1"/>
    </vehicle>
    <vehicle id="31" depart="22.32">
        <route edges="19923100#0 19923100#1 640125752 196868480 506103816 196866277 196866280#0 196866280#1 278585351 19922827#0 19922827#1 949812550 19923064#0 19923064#1"/>
    </vehicle>
    <vehicle id="34" depart="24.48">
        <route edges="19922965#0 19922965#1 19922965#2 19922965#3 640112944 640112943 278585351 19922827#0 19922827#1 196868483 506103815 196868480 506103816 19922980#0 19922980#1 19922980#2"/>
    </vehicle>
    <vehicle id="40" depart="28.80">
        <route edges="19923100#0 19923100#1 640125752 196868480 506103816 19922980#0 19922980#1 19922980#2"/>
    </vehicle>
    <vehicle id="41" depart="29.52">
        <route edges="29110230 675974617 110919690 675974615#0 675974615#1 196868483 506103815 196868480 506103816 196866277 24978874#0 24978874#1 432864794 432864793#0 432864793#1 432864793#2"/>
    </vehicle>
    <vehicle id="42" depart="30.24">
        <route edges="19922965#0 19922965#1 19922965#2 19922965#3 640112944 640112943 278585351 19922827#0 19922827#1 196868483 506103815 196868480 506103816 19922980#0 19922980#1 19922980#2"/>
    </vehicle>
    <vehicle id="44" depart="31.68">
        <route edges="-432864793#2 -432864793#1 -432864793#0 110919688#0 110919688#1 278585351 24978850#0 24978850#1 -29110230"/>
    </vehicle>
    <vehicle id="45" depart="32.40">
        <route edges="-432864793#2 -432864793#1 -432864793#0 110919688#0 110919688#1 278585351 19922827#0 19922827#1 949812550 19923064#0 19923064#1"/>
    </vehicle>
    <vehicle id="46" depart="33.12">
        <route edges="52985347 19922999 19923007"/>
    </vehicle>
    <vehicle id="49" depart="35.28">
        <route edges="548557132#0 548557132#1 548557132#2 506103816 196866277 24978874#0 24978874#1 432864794 432864793#0 432864793#1 432864793#2"/>
    </vehicle>
    <vehicle id="50" depart="36.00">
        <route edges="-432864793#2 -432864793#1 -432864793#0 110919688#0 110919688#1 278585351 19922827#0 19922827#1 196868483 548557131 4039300#0 4039300#1"/>
    </vehicle>
    <vehicle id="54" depart="38.88">
        <route edges="19923100#0 19923100#1 640125752 196868480 506103816 196866277 24978874#0 24978874#1 432864794 432864793#0 432864793#1 432864793#2"/>
    </vehicle>
    <vehicle id="55" depart="39.60">
        <route edges="548557132#0 548557132#1 548557132#2 506103816 19922980#0 19922980#1 19922980#2"/>
    </vehicle>
    <vehicle id="56" depart="40.32">
        <route edges="19923100#0 19923100#1 640125752 196868480 506103816 19922980#0 19922980#1 19922980#2"/>
    </vehicle>
    <vehicle id="57" depart="41.04">
        <route edges="548557132#0 548557132#1 548557132#2 506103816 196866277 24978874#0 24978874#1 432864794 432864793#0 432864793#1 432864793#2"/>
    </vehicle>
    <vehicle id="58" depart="41.76">
        <route edges="19922965#0 19922965#1 19922965#2 19922965#3 640112944 640112943 278585351 19922827#0 19922827#1 949812550 19923064#0 19923064#1"/>
    </vehicle>
    <vehicle id="59" depart="42.48">
        <route edges="29110230 675974617 110919690 675974615#0 675974615#1 196868483 506103815 196868480 506103816 19922980#0 19922980#1 19922980#2"/>
    </vehicle>
    <vehicle id="63" depart="45.36">
        <route edges="-432864793#2 -432864793#1 -432864793#0 432864793#0 432864793#1 432864793#2"/>
    </vehicle>
    <vehicle id="64" depart="46.08">
        <route edges="548557132#0 548557132#1 548557132#2 506103816 196866277 196866280#0 196866280#1 278585351 19922827#0 19922827#1 196868483 548557131 4039300#0 4039300#1"/>
    </vehicle>
    <vehicle id="65" depart="46.80">
        <route edges="19922965#0 19922965#1 19922965#2 19922965#3 640112944 640112943 278585351 24978850#0 24978850#1 -29110230"/>
    </vehicle>
    <vehicle id="66" depart="47.52">
        <route edges="548557132#0 548557132#1 548557132#2 506103816 196866277 24978874#0 24978874#1 432864794 432864793#0 432864793#1 432864793#2"/>
    </vehicle>
    <vehicle id="68" depart="48.96">
        <route edges="-432864793#2 -432864793#1 -432864793#0 110919688#0 110919688#1 278585351 19922827#0 19922827#1 196868483 548557131 4039300#0 4039300#1"/>
    </vehicle>
    <vehicle id="72" depart="51.84">
        <route edges="19922965#0 19922965#1 19922965#2 19922965#3 640112944 640112943 278585351 19922827#0 19922827#1 196868483 506103815 196868480 506103816 19922980#0 19922980#1 19922980#2"/>
    </vehicle>
    <vehicle id="73" depart="52.56">
        <route edges="19923100#0 19923100#1 4039300#0 4039300#1"/>
    </vehicle>
    <vehicle id="75" depart="54.00">
        <route edges="548557132#0 548557132#1 548557132#2 506103816 196866277 196866280#0 196866280#1 278585351 19922827#0 19922827#1 949812550 19923064#0 19923064#1"/>
    </vehicle>
    <vehicle id="77" depart="55.44">
        <route edges="-432864793#2 -432864793#1 -432864793#0 110919688#0 110919688#1 278585351 19922827#0 19922827#1 196868483 506103815 196868480 506103816 19922980#0 19922980#1 19922980#2"/>
    </vehicle>
    <vehicle id="78" depart="56.16">
        <route edges="19922965#0 19922965#1 19922965#2 19922965#3 640112944 640112943 278585351 19922827#0 19922827#1 949812550 19923064#0 19923064#1"/>
    </vehicle>
    <vehicle id="80" depart="57.60">
        <route edges="-432864793#2 -432864793#1 -432864793#0 110919688#0 110919688#1 278585351 19922827#0 19922827#1 949812550 19923064#0 19923064#1"/>
    </vehicle>
    <vehicle id="82" depart="59.04">
        <route edges="548557132#0 548557132#1 548557132#2 506103816 196866277 196866280#0 196866280#1 278585351 24978850#0 24978850#1 -29110230"/>
    </vehicle>
    <vehicle id="86" depart="61.92">
        <route edges="19923100#0 19923100#1 4039300#0 4039300#1"/>
    </vehicle>
    <vehicle id="91" depart="65.52">
        <route edges="548557132#0 548557132#1 548557132#2 506103816 196866277 196866280#0 196866280#1 278585351 24978850#0 24978850#1 -29110230"/>
    </vehicle>
    <vehicle id="93" depart="66.96">
        <route edges="548557132#0 548557132#1 548557132#2 506103816 19922980#0 19922980#1 19922980#2"/>
    </vehicle>
    <vehicle id="94" depart="67.68">
        <route edges="10345998 19923012 19923016"/>
    </vehicle>
    <vehicle id="95" depart="68.40">
        <route edges="19922965#0 19922965#1 19922965#2 19922965#3 640112944 640112943 278585351 19922827#0 19922827#1 196868483 506103815 196868480 506103816 19922980#0 19922980#1 19922980#2"/>
    </vehicle>
    <vehicle id="97" depart="69.84">
        <route edges="19923100#0 19923100#1 640125752 196868480 506103816 196866277 24978874#0 24978874#1 432864794 432864793#0 432864793#1 432864793#2"/>
    </vehicle>
    <vehicle id="98" depart="70.56">
        <route edges="19923100#0 19923100#1 640125752 196868480 506103816 196866277 196866280#0 196866280#1 278585351 24978850#0 24978850#1 -29110230"/>
    </vehicle>
    <vehicle id="99" depart="71.28">
        <route edges="548557132#0 548557132#1 548557132#2 506103816 196866277 196866280#0 196866280#1 278585351 19922827#0 19922827#1 196868483 548557131 4039300#0 4039300#1"/>
    </vehicle>
    <vehicle id="100" depart="72.00">
        <route edges="548557132#0 548557132#1 548557132#2 506103816 196866277 24978874#0 24978874#1 432864794 432864793#0 432864793#1 432864793#2"/>
    </vehicle>
    <vehicle id="102" depart="73.44">
        <route edges="19923100#0 19923100#1 640125752 196868480 506103816 19922980#0 19922980#1 19922980#2"/>
    </vehicle>
    <vehicle id="103" depart="74.16">
        <route edges="19922965#0 19922965#1 19922965#2 19922965#3 640112944 640112943 278585351 24978850#0 24978850#1 -29110230"/>
    </vehicle>
    <vehicle id="104" depart="74.88">
        <route edges="19922965#0 19922965#1 19922965#2 19922965#3 432864794 432864793#0 432864793#1 432864793#2"/>
    </vehicle>
    <vehicle id="107" depart="77.04">
        <route edges="548557132#0 548557132#1 548557132#2 506103816 196866277 24978874#0 24978874#1 432864794 432864793#0 432864793#1 432864793#2"/>
    </vehicle>
    <vehicle id="108" depart="77.76">
        <route edges="19923100#0 19923100#1 4039300#0 4039300#1"/>
    </vehicle>
    <vehicle id="110" depart="79.20">
        <route edges="548557132#0 548557132#1 548557132#2 506103816 196866277 196866280#0 196866280#1 278585351 19922827#0 19922827#1 949812550 19923064#0 19923064#1"/>
    </vehicle>
    <vehicle id="111" depart="79.92">
        <route edges="19923100#0 19923100#1 4039300#0 4039300#1"/>
    </vehicle>
    <vehicle id="112" depart="80.64">
        <route edges="-432864793#2 -432864793#1 -432864793#0 110919688#0 110919688#1 278585351 19922827#0 19922827#1 949812550 19923064#0 19923064#1"/>
    </vehicle>
    <vehicle id="113" depart="81.36">
        <route edges="19923100#0 19923100#1 4039300#0 4039300#1"/>
    </vehicle>
    <vehicle id="115" depart="82.80">
        <route edges="-432864793#2 -432864793#1 -432864793#0 110919688#0 110919688#1 278585351 19922827#0 19922827#1 196868483 506103815 196868480 506103816 19922980#0 19922980#1 19922980#2"/>
    </vehicle>
    <vehicle id="116" depart="83.52">
        <route edges="29110230 675974617 110919690 675974615#0 675974615#1 949812550 19923064#0 19923064#1"/>
    </vehicle>
    <vehicle id="118" depart="84.96">
        <route edges="548557132#0 548557132#1 548557132#2 506103816 19922980#0 19922980#1 19922980#2"/>
    </vehicle>
    <vehicle id="119" depart="85.68">
        <route edges="29110230 675974617 110919690 675974615#0 675974615#1 949812550 19923064#0 19923064#1"/>
    </vehicle>
    <vehicle id="120" depart="86.40">
        <route edges="19922965#0 19922965#1 19922965#2 19922965#3 640112944 640112943 278585351 19922827#0 19922827#1 949812550 19923064#0 19923064#1"/>
    </vehicle>
    <vehicle id="121" depart="87.12">
        <route edges="19923100#0 19923100#1 640125752 196868480 506103816 196866277 24978874#0 24978874#1 432864794 432864793#0 432864793#1 432864793#2"/>
    </vehicle>
    <vehicle id="125" depart="90.00">
        <route edges="19922965#0 19922965#1 19922965#2 19922965#3 640112944 640112943 278585351 19922827#0 19922827#1 196868483 548557131 4039300#0 4039300#1"/>
    </vehicle>
    <vehicle id="127" depart="91.44">
        <route edges="548557132#0 548557132#1 548557132#2 506103816 196866277 24978874#0 24978874#1 432864794 432864793#0 432864793#1 432864793#2"/>
    </vehicle>
    <vehicle id="128" depart="92.16">
        <route edges="-432864793#2 -432864793#1 -432864793#0 110919688#0 110919688#1 278585351 19922827#0 19922827#1 196868483 506103815 196868480 506103816 19922980#0 19922980#1 19922980#2"/>
    </vehicle>
    <vehicle id="130" depart="93.60">
        <route edges="548557132#0 548557132#1 548557132#2 506103816 196866277 24978874#0 24978874#1 432864794 432864793#0 432864793#1 432864793#2"/>
    </vehicle>
    <vehicle id="131" depart="94.32">
        <route edges="19922965#0 19922965#1 19922965#2 19922965#3 640112944 640112943 278585351 19922827#0 19922827#1 196868483 506103815 196868480 506103816 19922980#0 19922980#1 19922980#2"/>
    </vehicle>
    <vehicle id="133" depart="95.76">
        <route edges="29110230 675974617 110919690 675974615#0 675974615#1 196868483 506103815 196868480 506103816 196866277 24978874#0 24978874#1 432864794 432864793#0 432864793#1 432864793#2"/>
    </vehicle>
    <vehicle id="134" depart="96.48">
        <route edges="29110230 -29110230"/>
    </vehicle>
    <vehicle id="135" depart="97.20">
        <route edges="52985347 19922999 19923007"/>
    </vehicle>
    <vehicle id="136" depart="97.92">
        <route edges="29110230 675974617 110919690 675974615#0 675974615#1 196868483 506103815 196868480 506103816 196866277 24978874#0 24978874#1 432864794 432864793#0 432864793#1 432864793#2"/>
    </vehicle>
    <vehicle id="137" depart="98.64">
        <route edges="-432864793#2 -432864793#1 -432864793#0 110919688#0 110919688#1 278585351 24978850#0 24978850#1 -29110230"/>
    </vehicle>
    <vehicle id="141" depart="101.52">
        <route edges="29110230 675974617 110919690 675974615#0 675974615#1 196868483 506103815 196868480 506103816 19922980#0 19922980#1 19922980#2"/>
    </vehicle>
    <vehicle id="142" depart="102.24">
        <route edges="19923100#0 19923100#1 640125752 196868480 506103816 196866277 24978874#0 24978874#1 432864794 432864793#0 432864793#1 432864793#2"/>
    </vehicle>
    <vehicle id="144" depart="103.68">
        <route edges="19922965#0 19922965#1 19922965#2 19922965#3 640112944 640112943 278585351 19922827#0 19922827#1 196868483 506103815 196868480 506103816 19922980#0 19922980#1 19922980#2"/>
    </vehicle>
    <vehicle id="145" depart="104.40">
        <route edges="-432864793#2 -432864793#1 -432864793#0 110919688#0 110919688#1 278585351 19922827#0 19922827#1 196868483 548557131 4039300#0 4039300#1"/>
    </vehicle>
    <vehicle id="146" depart="105.12">
        <route edges="29110230 675974617 110919690 675974615#0 675974615#1 196868483 506103815 196868480 506103816 19922980#0 19922980#1 19922980#2"/>
    </vehicle>
    <vehicle id="148" depart="106.56">
        <route edges="19922965#0 19922965#1 19922965#2 19922965#3 640112944 640112943 278585351 24978850#0 24978850#1 -29110230"/>
    </vehicle>
    <vehicle id="149" depart="107.28">
        <route edges="-432864793#2 -432864793#1 -432864793#0 432864793#0 432864793#1 432864793#2"/>
    </vehicle>
    <vehicle id="153" depart="110.16">
        <route edges="19922965#0 19922965#1 19922965#2 19922965#3 432864794 432864793#0 432864793#1 432864793#2"/>
    </vehicle>
    <vehicle id="155" depart="111.60">
        <route edges="548557132#0 548557132#1 548557132#2 506103816 19922980#0 19922980#1 19922980#2"/>
    </vehicle>
    <vehicle id="158" depart="113.76">
        <route edges="19922965#0 19922965#1 19922965#2 19922965#3 640112944 640112943 278585351 19922827#0 19922827#1 949812550 19923064#0 19923064#1"/>
    </vehicle>
    <vehicle id="160" depart="115.20">
        <route edges="548557132#0 548557132#1 548557132#2 506103816 196866277 24978874#0 24978874#1 432864794 432864793#0 432864793#1 432864793#2"/>
    </vehicle>
    <vehicle id="162" depart="116.64">
        <route edges="-432864793#2 -432864793#1 -432864793#0 110919688#0 110919688#1 278585351 19922827#0 19922827#1 196868483 548557131 4039300#0 4039300#1"/>
    </vehicle>
    <vehicle id="163" depart="117.36">
        <route edges="19922965#0 19922965#1 19922965#2 19922965#3 432864794 432864793#0 432864793#1 432864793#2"/>
    </vehicle>
    <vehicle id="167" depart="120.24">
        <route edges="548557132#0 548557132#1 548557132#2 506103816 196866277 24978874#0 24978874#1 432864794 432864793#0 432864793#1 432864793#2"/>
    </vehicle>
    <vehicle id="171" depart="123.12">
        <route edges="-432864793#2 -432864793#1 -432864793#0 110919688#0 110919688#1 278585351 19922827#0 19922827#1 196868483 506103815 196868480 506103816 19922980#0 19922980#1 19922980#2"/>
    </vehicle>
    <vehicle id="172" depart="123.84">
        <route edges="19922965#0 19922965#1 19922965#2 19922965#3 432864794 432864793#0 432864793#1 432864793#2"/>
    </vehicle>
    <vehicle id="173" depart="124.56">
        <route edges="548557132#0 548557132#1 548557132#2 506103816 19922980#0 19922980#1 19922980#2"/>
    </vehicle>
    <vehicle id="176" depart="126.72">
        <route edges="548557132#0 548557132#1 548557132#2 506103816 196866277 196866280#0 196866280#1 278585351 24978850#0 24978850#1 -29110230"/>
    </vehicle>
    <vehicle id="177" depart="127.44">
        <route edges="548557132#0 548557132#1 548557132#2 506103816 19922980#0 19922980#1 19922980#2"/>
    </vehicle>
    <vehicle id="178" depart="128.16">
        <route edges="548557132#0 548557132#1 548557132#2 506103816 19922980#0 19922980#1 19922980#2"/>
    </vehicle>
    <vehicle id="180" depart="129.60">
        <route edges="52985347 19922999 19923007"/>
    </vehicle>
    <vehicle id="182" depart="131.04">
        <route edges="19922965#0 19922965#1 19922965#2 19922965#3 640112944 640112943 278585351 19922827#0 19922827#1 949812550 19923064#0 19923064#1"/>
    </vehicle>
    <vehicle id="184" depart="132.48">
        <route edges="-432864793#2 -432864793#1 -432864793#0 432864793#0 432864793#1 432864793#2"/>
    </vehicle>
    <vehicle id="185" depart="133.20">
        <route edges="19923100#0 19923100#1 4039300#0 4039300#1"/>
    </vehicle>
    <vehicle id="187" depart="134.64">
        <route edges="19922965#0 19922965#1 19922965#2 19922965#3 640112944 640112943 278585351 24978850#0 24978850#1 -29110230"/>
    </vehicle>
    <vehicle id="189" depart="136.08">
        <route edges="19922965#0 19922965#1 19922965#2 19922965#3 640112944 640112943 278585351 19922827#0 19922827#1 196868483 548557131 4039300#0 4039300#1"/>
    </vehicle>
    <vehicle id="190" depart="136.80">
        <route edges="52985347 19922999 19923007"/>
    </vehicle>
    <vehicle id="194" depart="139.68">
        <route edges="548557132#0 548557132#1 548557132#2 506103816 196866277 196866280#0 196866280#1 278585351 19922827#0 19922827#1 949812550 19923064#0 19923064#1"/>
    </vehicle>
    <vehicle id="195" depart="140.40">
        <route edges="548557132#0 548557132#1 548557132#2 506103816 196866277 196866280#0 196866280#1 278585351 19922827#0 19922827#1 949812550 19923064#0 19923064#1"/>
    </vehicle>
    <vehicle id="198" depart="142.56">
        <route edges="19923100#0 19923100#1 640125752 196868480 506103816 196866277 196866280#0 196866280#1 278585351 19922827#0 19922827#1 949812550 19923064#0 19923064#1"/>
    </vehicle>
    <vehicle id="200" depart="144.00">
        <route edges="19923100#0 19923100#1 640125752 196868480 506103816 19922980#0 19922980#1 19922980#2"/>
    </vehicle>
    <vehicle id="201" depart="144.72">
        <route edges="19923100#0 19923100#1 640125752 196868480 506103816 196866277 24978874#0 24978874#1 432864794 432864793#0 432864793#1 432864793#2"/>
    </vehicle>
    <vehicle id="206" depart="148.32">
        <route edges="29110230 675974617 110919690 675974615#0 675974615#1 196868483 506103815 196868480 506103816 19922980#0 19922980#1 19922980#2"/>
    </vehicle>
    <vehicle id="208" depart="149.76">
        <route edges="10345998 19923012 19923016"/>
    </vehicle>
    <vehicle id="210" depart="151.20">
        <route edges="19922965#0 19922965#1 19922965#2 19922965#3 640112944 640112943 278585351 19922827#0 19922827#1 949812550 19923064#0 19923064#1"/>
    </vehicle>
    <vehicle id="212" depart="152.64">
        <route edges="19923100#0 19923100#1 640125752 196868480 506103816 19922980#0 19922980#1 19922980#2"/>
    </vehicle>
    <vehicle id="213" depart="153.36">
        <route edges="29110230 -29110230"/>
    </vehicle>
    <vehicle id="217" depart="156.24">
        <route edges="19923100#0 19923100#1 640125752 196868480 506103816 196866277 196866280#0 196866280#1 278585351 24978850#0 24978850#1 -29110230"/>
    </vehicle>
    <vehicle id="219" depart="157.68">
        <route edges="19923100#0 19923100#1 4039300#0 4039300#1"/>
    </vehicle>
    <vehicle id="220" depart="158.40">
        <route edges="29110230 675974617 110919690 675974615#0 675974615#1 196868483 506103815 196868480 506103816 196866277 24978874#0 24978874#1 432864794 432864793#0 432864793#1 432864793#2"/>
    </vehicle>
    <vehicle id="221" depart="159.12">
        <route edges="29110230 675974617 110919690 675974615#0 675974615#1 196868483 506103815 196868480 506103816 196866277 24978874#0 24978874#1 432864794 432864793#0 432864793#1 432864793#2"/>
    </vehicle>
    <vehicle id="222" depart="159.84">
        <route edges="548557132#0 548557132#1 548557132#2 506103816 196866277 196866280#0 196866280#1 278585351 19922827#0 19922827#1 949812550 19923064#0 19923064#1"/>
    </vehicle>
    <vehicle id="225" depart="162.00">
        <route edges="548557132#0 548557132#1 548557132#2 506103816 196866277 196866280#0 196866280#1 278585351 19922827#0 19922827#1 196868483 548557131 4039300#0 4039300#1"/>
    </vehicle>
    <vehicle id="226" depart="162.72">
        <route edges="19923100#0 19923100#1 640125752 196868480 506103816 19922980#0 19922980#1 19922980#2"/>
    </vehicle>
    <vehicle id="229" depart="164.88">
        <route edges="29110230 675974617 110919690 675974615#0 675974615#1 196868483 506103815 196868480 506103816 19922980#0 19922980#1 19922980#2"/>
    </vehicle>
    <vehicle id="232" depart="167.04">
        <route edges="19923100#0 19923100#1 640125752 196868480 506103816 196866277 196866280#0 196866280#1 278585351 24978850#0 24978850#1 -29110230"/>
    </vehicle>
    <vehicle id="234" depart="168.48">
        <route edges="29110230 -29110230"/>
    </vehicle>
    <vehicle id="236" depart="169.92">
        <route edges="19922965#0 19922965#1 19922965#2 19922965#3 640112944 640112943 278585351 19922827#0 19922827#1 196868483 506103815 196868480 506103816 19922980#0 19922980#1 19922980#2"/>
    </vehicle>
    <vehicle id="237" depart="170.64">
        <route edges="19922965#0 19922965#1 19922965#2 19922965#3 432864794 432864793#0 432864793#1 432864793#2"/>
    </vehicle>
    <vehicle id="238" depart="171.36">
        <route edges="29110230 675974617 110919690 675974615#0 675974615#1 949812550 19923064#0 19923064#1"/>
    </vehicle>
    <vehicle id="240" depart="172.80">
        <route edges="19922965#0 19922965#1 19922965#2 19922965#3 640112944 640112943 278585351 24978850#0 24978850#1 -29110230"/>
    </vehicle>
    <vehicle id="241" depart="173.52">
        <route edges="19922965#0 19922965#1 19922965#2 19922965#3 640112944 640112943 278585351 19922827#0 19922827#1 196868483 548557131 4039300#0 4039300#1"/>
    </vehicle>
    <vehicle id="243" depart="174.96">
        <route edges="19922965#0 19922965#1 19922965#2 19922965#3 640112944 640112943 278585351 19922827#0 19922827#1 196868483 548557131 4039300#0 4039300#1"/>
    </vehicle>
    <vehicle id="244" depart="175.68">
        <route edges="19923100#0 19923100#1 640125752 196868480 506103816 196866277 196866280#0 196866280#1 278585351 19922827#0 19922827#1 949812550 19923064#0 19923064#1"/>
    </vehicle>
    <vehicle id="246" depart="177.12">
        <route edges="19923100#0 19923100#1 640125752 196868480 506103816 196866277 196866280#0 196866280#1 278585351 24978850#0 24978850#1 -29110230"/>
    </vehicle>
    <vehicle id="247" depart="177.84">
        <route edges="19922965#0 19922965#1 19922965#2 19922965#3 640112944 640112943 278585351 19922827#0 19922827#1 949812550 19923064#0 19923064#1"/>
    </vehicle>
    <vehicle id="248" depart="178.56">
        <route edges="19922965#0 19922965#1 19922965#2 19922965#3 640112944 640112943 278585351 19922827#0 19922827#1 196868483 506103815 196868480 506103816 19922980#0 19922980#1 19922980#2"/>
    </vehicle>
    <vehicle id="249" depart="179.28">
        <route edges="19923100#0 19923100#1 640125752 196868480 506103816 196866277 196866280#0 196866280#1 278585351 24978850#0 24978850#1 -29110230"/>
    </vehicle>
    <vehicle id="250" depart="180.00">
        <route edges="29110230 -29110230"/>
    </vehicle>
    <vehicle id="252" depart="181.44">
        <route edges="-432864793#2 -432864793#1 -432864793#0 110919688#0 110919688#1 278585351 19922827#0 19922827#1 949812550 19923064#0 19923064#1"/>
    </vehicle>
    <vehicle id="256" depart="184.32">
        <route edges="52985347 19922999 19923007"/>
    </vehicle>
    <vehicle id="261" depart="187.92">
        <route edges="29110230 675974617 110919690 675974615#0 675974615#1 196868483 548557131 4039300#0 4039300#1"/>
    </vehicle>
    <vehicle id="262" depart="188.64">
        <route edges="29110230 675974617 110919690 675974615#0 675974615#1 196868483 548557131 4039300#0 4039300#1"/>
    </vehicle>
    <vehicle id="263" depart="189.36">
        <route edges="548557132#0 548557132#1 548557132#2 506103816 19922980#0 19922980#1 19922980#2"/>
    </vehicle>
    <vehicle id="264" depart="190.08">
        <route edges="-432864793#2 -432864793#1 -432864793#0 110919688#0 110919688#1 278585351 19922827#0 19922827#1 196868483 506103815 196868480 506103816 19922980#0 19922980#1 19922980#2"/>
    </vehicle>
    <vehicle id="265" depart="190.80">
        <route edges="-432864793#2 -432864793#1 -432864793#0 110919688#0 110919688#1 278585351 19922827#0 19922827#1 949812550 19923064#0 19923064#1"/>
    </vehicle>
    <vehicle id="266" depart="191.52">
        <route edges="19923100#0 19923100#1 640125752 196868480 506103816 19922980#0 19922980#1 19922980#2"/>
    </vehicle>
    <vehicle id="267" depart="192.24">
        <route edges="29110230 675974617 110919690 675974615#0 675974615#1 196868483 548557131 4039300#0 4039300#1"/>
    </vehicle>
    <vehicle id="271" depart="195.12">
        <route edges="-432864793#2 -432864793#1 -432864793#0 110919688#0 110919688#1 278585351 24978850#0 24978850#1 -29110230"/>
    </vehicle>
    <vehicle id="272" depart="195.84">
        <route edges="19922965#0 19922965#1 19922965#2 19922965#3 640112944 640112943 278585351 19922827#0 19922827#1 949812550 19923064#0 19923064#1"/>
    </vehicle>
    <vehicle id="275" depart="198.00">
        <route edges="29110230 675974617 110919690 675974615#0 675974615#1 949812550 19923064#0 19923064#1"/>
    </vehicle>
    <vehicle id="276" depart="198.72">
        <route edges="-432864793#2 -432864793#1 -432864793#0 110919688#0 110919688#1 278585351 19922827#0 19922827#1 196868483 548557131 4039300#0 4039300#1"/>
    </vehicle>
    <vehicle id="278" depart="200.16">
        <route edges="-432864793#2 -432864793#1 -432864793#0 432864793#0 432864793#1 432864793#2"/>
    </vehicle>
    <vehicle id="279" depart="200.88">
        <route edges="52985347 19922999 19923007"/>
    </vehicle>
    <vehicle id="283" depart="203.76">
        <route edges="-432864793#2 -432864793#1 -432864793#0 432864793#0 432864793#1 432864793#2"/>
    </vehicle>
    <vehicle id="284" depart="204.48">
        <route edges="29110230 675974617 110919690 675974615#0 675974615#1 196868483 548557131 4039300#0 4039300#1"/>
    </vehicle>
    <vehicle id="289" depart="208.08">
        <route edges="19923100#0 19923100#1 4039300#0 4039300#1"/>
    </vehicle>
    <vehicle id="292" depart="210.24">
        <route edges="548557132#0 548557132#1 548557132#2 506103816 19922980#0 19922980#1 19922980#2"/>
    </vehicle>