<?xml version="1.0" encoding="UTF-8"?>

<!-- generated on 2024-09-03 01:38:27.170624 by randomTrips.py UNKNOWN
<configuration>
    <net-file value="train_files/roundabout/hard/outputs/map(57)_dict/map(57)/map(57).net.xml"/>
    <output-trip-file value="train_files/roundabout/hard/outputs/map(57)_dict/map(57)/map(57).trips.xml"/>
    <fringe-factor value="max"/>
    <validate value="True"/>
    <period value="0.72"/>
</configuration>
-->

<!-- generated on 2024-09-03 01:38:27 by Eclipse SUMO duarouter Version 1.20.0
<configuration xmlns:xsi="http://www.w3.org/2001/XMLSchema-instance" xsi:noNamespaceSchemaLocation="http://sumo.dlr.de/xsd/duarouterConfiguration.xsd">

    <input>
        <net-file value="train_files/roundabout/hard/outputs/map(57)_dict/map(57)/map(57).net.xml"/>
        <route-files value="train_files/roundabout/hard/outputs/map(57)_dict/map(57)/map(57).trips.xml"/>
    </input>

    <output>
        <output-file value="train_files/roundabout/hard/outputs/map(57)_dict/map(57)/map(57).trips.xml.tmp"/>
        <alternatives-output value="NUL"/>
        <write-trips value="true"/>
    </output>

    <time>
        <begin value="0"/>
        <end value="3600"/>
    </time>

    <report>
        <no-warnings value="true"/>
        <ignore-errors value="true"/>
        <no-step-log value="true"/>
    </report>

</configuration>
-->

<routes xmlns:xsi="http://www.w3.org/2001/XMLSchema-instance" xsi:noNamespaceSchemaLocation="http://sumo.dlr.de/xsd/routes_file.xsd">
    <trip id="0" depart="0.00" from="29110230" to="-29110230"/>
    <trip id="3" depart="2.16" from="548557132#0" to="-29110230"/>
    <trip id="4" depart="2.88" from="19922965#0" to="-29110230"/>
    <trip id="5" depart="3.60" from="10345998" to="19923016"/>
    <trip id="6" depart="4.32" from="-432864793#2" to="19922980#2"/>
    <trip id="11" depart="7.92" from="19922965#0" to="19922980#2"/>
    <trip id="13" depart="9.36" from="-432864793#2" to="-29110230"/>
    <trip id="16" depart="11.52" from="19923100#0" to="432864793#2"/>
    <trip id="19" depart="13.68" from="548557132#0" to="19923064#1"/>
    <trip id="20" depart="14.40" from="29110230" to="-29110230"/>
    <trip id="22" depart="15.84" from="-432864793#2" to="19922980#2"/>
    <trip id="23" depart="16.56" from="-432864793#2" to="19922980#2"/>
    <trip id="25" depart="18.00" from="19922965#0" to="19922980#2"/>
    <trip id="27" depart="19.44" from="29110230" to="19923064#1"/>
    <trip id="30" depart="21.60" from="548557132#0" to="19923064#1"/>
    <trip id="31" depart="22.32" from="19923100#0" to="19923064#1"/>
    <trip id="34" depart="24.48" from="19922965#0" to="19922980#2"/>
    <trip id="40" depart="28.80" from="19923100#0" to="19922980#2"/>
    <trip id="41" depart="29.52" from="29110230" to="432864793#2"/>
    <trip id="42" depart="30.24" from="19922965#0" to="19922980#2"/>
    <trip id="44" depart="31.68" from="-432864793#2" to="-29110230"/>
    <trip id="45" depart="32.40" from="-432864793#2" to="19923064#1"/>
    <trip id="46" depart="33.12" from="52985347" to="19923007"/>
    <trip id="49" depart="35.28" from="548557132#0" to="432864793#2"/>
    <trip id="50" depart="36.00" from="-432864793#2" to="4039300#1"/>
    <trip id="54" depart="38.88" from="19923100#0" to="432864793#2"/>
    <trip id="55" depart="39.60" from="548557132#0" to="19922980#2"/>
    <trip id="56" depart="40.32" from="19923100#0" to="19922980#2"/>
    <trip id="57" depart="41.04" from="548557132#0" to="432864793#2"/>
    <trip id="58" depart="41.76" from="19922965#0" to="19923064#1"/>
    <trip id="59" depart="42.48" from="29110230" to="19922980#2"/>
    <trip id="63" depart="45.36" from="-432864793#2" to="432864793#2"/>
    <trip id="64" depart="46.08" from="548557132#0" to="4039300#1"/>
    <trip id="65" depart="46.80" from="19922965#0" to="-29110230"/>
    <trip id="66" depart="47.52" from="548557132#0" to="432864793#2"/>
    <trip id="68" depart="48.96" from="-432864793#2" to="4039300#1"/>
    <trip id="72" depart="51.84" from="19922965#0" to="19922980#2"/>
    <trip id="73" depart="52.56" from="19923100#0" to="4039300#1"/>
    <trip id="75" depart="54.00" from="548557132#0" to="19923064#1"/>
    <trip id="77" depart="55.44" from="-432864793#2" to="19922980#2"/>
    <trip id="78" depart="56.16" from="19922965#0" to="19923064#1"/>
    <trip id="80" depart="57.60" from="-432864793#2" to="19923064#1"/>
    <trip id="82" depart="59.04" from="548557132#0" to="-29110230"/>
    <trip id="86" depart="61.92" from="19923100#0" to="4039300#1"/>
    <trip id="91" depart="65.52" from="548557132#0" to="-29110230"/>
    <trip id="93" depart="66.96" from="548557132#0" to="19922980#2"/>
    <trip id="94" depart="67.68" from="10345998" to="19923016"/>
    <trip id="95" depart="68.40" from="19922965#0" to="19922980#2"/>
    <trip id="97" depart="69.84" from="19923100#0" to="432864793#2"/>
    <trip id="98" depart="70.56" from="19923100#0" to="-29110230"/>
    <trip id="99" depart="71.28" from="548557132#0" to="4039300#1"/>
    <trip id="100" depart="72.00" from="548557132#0" to="432864793#2"/>
    <trip id="102" depart="73.44" from="19923100#0" to="19922980#2"/>
    <trip id="103" depart="74.16" from="19922965#0" to="-29110230"/>
    <trip id="104" depart="74.88" from="19922965#0" to="432864793#2"/>
    <trip id="107" depart="77.04" from="548557132#0" to="432864793#2"/>
    <trip id="108" depart="77.76" from="19923100#0" to="4039300#1"/>
    <trip id="110" depart="79.20" from="548557132#0" to="19923064#1"/>
    <trip id="111" depart="79.92" from="19923100#0" to="4039300#1"/>
    <trip id="112" depart="80.64" from="-432864793#2" to="19923064#1"/>
    <trip id="113" depart="81.36" from="19923100#0" to="4039300#1"/>
    <trip id="115" depart="82.80" from="-432864793#2" to="19922980#2"/>
    <trip id="116" depart="83.52" from="29110230" to="19923064#1"/>
    <trip id="118" depart="84.96" from="548557132#0" to="19922980#2"/>
    <trip id="119" depart="85.68" from="29110230" to="19923064#1"/>
    <trip id="120" depart="86.40" from="19922965#0" to="19923064#1"/>
    <trip id="121" depart="87.12" from="19923100#0" to="432864793#2"/>
    <trip id="125" depart="90.00" from="19922965#0" to="4039300#1"/>
    <trip id="127" depart="91.44" from="548557132#0" to="432864793#2"/>
    <trip id="128" depart="92.16" from="-432864793#2" to="19922980#2"/>
    <trip id="130" depart="93.60" from="548557132#0" to="432864793#2"/>
    <trip id="131" depart="94.32" from="19922965#0" to="19922980#2"/>
    <trip id="133" depart="95.76" from="29110230" to="432864793#2"/>
    <trip id="134" depart="96.48" from="29110230" to="-29110230"/>
    <trip id="135" depart="97.20" from="52985347" to="19923007"/>
    <trip id="136" depart="97.92" from="29110230" to="432864793#2"/>
    <trip id="137" depart="98.64" from="-432864793#2" to="-29110230"/>
    <trip id="141" depart="101.52" from="29110230" to="19922980#2"/>
    <trip id="142" depart="102.24" from="19923100#0" to="432864793#2"/>
    <trip id="144" depart="103.68" from="19922965#0" to="19922980#2"/>
    <trip id="145" depart="104.40" from="-432864793#2" to="4039300#1"/>
    <trip id="146" depart="105.12" from="29110230" to="19922980#2"/>
    <trip id="148" depart="106.56" from="19922965#0" to="-29110230"/>
    <trip id="149" depart="107.28" from="-432864793#2" to="432864793#2"/>
    <trip id="153" depart="110.16" from="19922965#0" to="432864793#2"/>
    <trip id="155" depart="111.60" from="548557132#0" to="19922980#2"/>
    <trip id="158" depart="113.76" from="19922965#0" to="19923064#1"/>
    <trip id="160" depart="115.20" from="548557132#0" to="432864793#2"/>
    <trip id="162" depart="116.64" from="-432864793#2" to="4039300#1"/>
    <trip id="163" depart="117.36" from="19922965#0" to="432864793#2"/>
    <trip id="167" depart="120.24" from="548557132#0" to="432864793#2"/>
    <trip id="171" depart="123.12" from="-432864793#2" to="19922980#2"/>
    <trip id="172" depart="123.84" from="19922965#0" to="432864793#2"/>
    <trip id="173" depart="124.56" from="548557132#0" to="19922980#2"/>
    <trip id="176" depart="126.72" from="548557132#0" to="-29110230"/>
    <trip id="177" depart="127.44" from="548557132#0" to="19922980#2"/>
    <trip id="178" depart="128.16" from="548557132#0" to="19922980#2"/>
    <trip id="180" depart="129.60" from="52985347" to="19923007"/>
    <trip id="182" depart="131.04" from="19922965#0" to="19923064#1"/>
    <trip id="184" depart="132.48" from="-432864793#2" to="432864793#2"/>
    <trip id="185" depart="133.20" from="19923100#0" to="4039300#1"/>
    <trip id="187" depart="134.64" from="19922965#0" to="-29110230"/>
    <trip id="189" depart="136.08" from="19922965#0" to="4039300#1"/>
    <trip id="190" depart="136.80" from="52985347" to="19923007"/>
    <trip id="194" depart="139.68" from="548557132#0" to="19923064#1"/>
    <trip id="195" depart="140.40" from="548557132#0" to="19923064#1"/>
    <trip id="198" depart="142.56" from="19923100#0" to="19923064#1"/>
    <trip id="200" depart="144.00" from="19923100#0" to="19922980#2"/>
    <trip id="201" depart="144.72" from="19923100#0" to="432864793#2"/>
    <trip id="206" depart="148.32" from="29110230" to="19922980#2"/>
    <trip id="208" depart="149.76" from="10345998" to="19923016"/>
    <trip id="210" depart="151.20" from="19922965#0" to="19923064#1"/>
    <trip id="212" depart="152.64" from="19923100#0" to="19922980#2"/>
    <trip id="213" depart="153.36" from="29110230" to="-29110230"/>
    <trip id="217" depart="156.24" from="19923100#0" to="-29110230"/>
    <trip id="219" depart="157.68" from="19923100#0" to="4039300#1"/>
    <trip id="220" depart="158.40" from="29110230" to="432864793#2"/>
    <trip id="221" depart="159.12" from="29110230" to="432864793#2"/>
    <trip id="222" depart="159.84" from="548557132#0" to="19923064#1"/>
    <trip id="225" depart="162.00" from="548557132#0" to="4039300#1"/>
    <trip id="226" depart="162.72" from="19923100#0" to="19922980#2"/>
    <trip id="229" depart="164.88" from="29110230" to="19922980#2"/>
    <trip id="232" depart="167.04" from="19923100#0" to="-29110230"/>
    <trip id="234" depart="168.48" from="29110230" to="-29110230"/>
    <trip id="236" depart="169.92" from="19922965#0" to="19922980#2"/>
    <trip id="237" depart="170.64" from="19922965#0" to="432864793#2"/>
    <trip id="238" depart="171.36" from="29110230" to="19923064#1"/>
    <trip id="240" depart="172.80" from="19922965#0" to="-29110230"/>
    <trip id="241" depart="173.52" from="19922965#0" to="4039300#1"/>
    <trip id="243" depart="174.96" from="19922965#0" to="4039300#1"/>
    <trip id="244" depart="175.68" from="19923100#0" to="19923064#1"/>
    <trip id="246" depart="177.12" from="19923100#0" to="-29110230"/>
    <trip id="247" depart="177.84" from="19922965#0" to="19923064#1"/>
    <trip id="248" depart="178.56" from="19922965#0" to="19922980#2"/>
    <trip id="249" depart="179.28" from="19923100#0" to="-29110230"/>
    <trip id="250" depart="180.00" from="29110230" to="-29110230"/>
    <trip id="252" depart="181.44" from="-432864793#2" to="19923064#1"/>
    <trip id="256" depart="184.32" from="52985347" to="19923007"/>
    <trip id="261" depart="187.92" from="29110230" to="4039300#1"/>
    <trip id="262" depart="188.64" from="29110230" to="4039300#1"/>
    <trip id="263" depart="189.36" from="548557132#0" to="19922980#2"/>
    <trip id="264" depart="190.08" from="-432864793#2" to="19922980#2"/>
    <trip id="265" depart="190.80" from="-432864793#2" to="19923064#1"/>
    <trip id="266" depart="191.52" from="19923100#0" to="19922980#2"/>
    <trip id="267" depart="192.24" from="29110230" to="4039300#1"/>
    <trip id="271" depart="195.12" from="-432864793#2" to="-29110230"/>
    <trip id="272" depart="195.84" from="19922965#0" to="19923064#1"/>
    <trip id="275" depart="198.00" from="29110230" to="19923064#1"/>
    <trip id="276" depart="198.72" from="-432864793#2" to="4039300#1"/>
    <trip id="278" depart="200.16" from="-432864793#2" to="432864793#2"/>
    <trip id="279" depart="200.88" from="52985347" to="19923007"/>
    <trip id="283" depart="203.76" from="-432864793#2" to="432864793#2"/>
    <trip id="284" depart="204.48" from="29110230" to="4039300#1"/>
    <trip id="289" depart="208.08" from="19923100#0" to="4039300#1"/>
    <trip id="292" depart="210.24" from="548557132#0" to="19922980#2"/>
    <trip id="293" depart="210.96" from="19923100#0" to="19923064#1"/>
    <trip id="294" depart="211.68" from="19922965#0" to="-29110230"/>
    <trip id="297" depart="213.84" from="19922965#0" to="432864793#2"/>
    <trip id="298" depart="214.56" from="29110230" to="19922980#2"/>
    <trip id="299" depart="215.28" from="-432864793#2" to="432864793#2"/>
    <trip id="300" depart="216.00" from="-432864793#2" to="4039300#1"/>
    <trip id="301" depart="216.72" from="19923100#0" to="4039300#1"/>
    <trip id="302" depart="217.44" from="29110230" to="19923064#1"/>
    <trip id="303" depart="218.16" from="19923100#0" to="4039300#1"/>
    <trip id="304" depart="218.88" from="-432864793#2" to="19922980#2"/>
    <trip id="308" depart="221.76" from="52985347" to="19923007"/>
    <trip id="309" depart="222.48" from="29110230" to="19922980#2"/>
    <trip id="312" depart="224.64" from="19923100#0" to="4039300#1"/>
    <trip id="314" depart="226.08" from="19923100#0" to="4039300#1"/>
    <trip id="319" depart="229.68" from="19923100#0" to="19922980#2"/>
    <trip id="321" depart="231.12" from="29110230" to="-29110230"/>
    <trip id="323" depart="232.56" from="548557132#0" to="19923064#1"/>
    <trip id="327" depart="235.44" from="52985347" to="19923007"/>
    <trip id="328" depart="236.16" from="-432864793#2" to="19923064#1"/>
    <trip id="329" depart="236.88" from="-432864793#2" to="19922980#2"/>
    <trip id="331" depart="238.32" from="548557132#0" to="-29110230"/>
    <trip id="335" depart="241.20" from="19923100#0" to="432864793#2"/>
    <trip id="337" depart="242.64" from="29110230" to="19923064#1"/>
    <trip id="340" depart="244.80" from="29110230" to="19922980#2"/>
    <trip id="346" depart="249.12" from="29110230" to="432864793#2"/>
    <trip id="348" depart="250.56" from="29110230" to="432864793#2"/>
    <trip id="350" depart="252.00" from="29110230" to="432864793#2"/>
    <trip id="354" depart="254.88" from="19922965#0" to="-29110230"/>
    <trip id="355" depart="255.60" from="29110230" to="19923064#1"/>
    <trip id="357" depart="257.04" from="19923100#0" to="-29110230"/>
    <trip id="359" depart="258.48" from="19922965#0" to="19922980#2"/>
    <trip id="360" depart="259.20" from="-432864793#2" to="432864793#2"/>
    <trip id="362" depart="260.64" from="548557132#0" to="432864793#2"/>
    <trip id="363" depart="261.36" from="29110230" to="19922980#2"/>
    <trip id="364" depart="262.08" from="-432864793#2" to="4039300#1"/>
    <trip id="365" depart="262.80" from="19923100#0" to="19923064#1"/>
    <trip id="366" depart="263.52" from="548557132#0" to="19922980#2"/>
    <trip id="367" depart="264.24" from="29110230" to="19923064#1"/>
    <trip id="368" depart="264.96" from="19923100#0" to="-29110230"/>
    <trip id="370" depart="266.40" from="29110230" to="432864793#2"/>
    <trip id="371" depart="267.12" from="19922965#0" to="19923064#1"/>
    <trip id="372" depart="267.84" from="19922965#0" to="432864793#2"/>
    <trip id="375" depart="270.00" from="19922965#0" to="432864793#2"/>
    <trip id="377" depart="271.44" from="548557132#0" to="19923064#1"/>
    <trip id="382" depart="275.04" from="19923100#0" to="432864793#2"/>
    <trip id="383" depart="275.76" from="19923100#0" to="19923064#1"/>
    <trip id="384" depart="276.48" from="-432864793#2" to="432864793#2"/>
    <trip id="385" depart="277.20" from="29110230" to="19922980#2"/>
    <trip id="386" depart="277.92" from="10345998" to="19923016"/>
    <trip id="387" depart="278.64" from="19923100#0" to="-29110230"/>
    <trip id="388" depart="279.36" from="548557132#0" to="432864793#2"/>
    <trip id="389" depart="280.08" from="19923100#0" to="-29110230"/>
    <trip id="393" depart="282.96" from="548557132#0" to="19922980#2"/>
    <trip id="396" depart="285.12" from="548557132#0" to="432864793#2"/>
    <trip id="398" depart="286.56" from="19922965#0" to="432864793#2"/>
    <trip id="399" depart="287.28" from="19923100#0" to="4039300#1"/>
    <trip id="401" depart="288.72" from="29110230" to="432864793#2"/>
    <trip id="402" depart="289.44" from="19923100#0" to="19922980#2"/>
    <trip id="407" depart="293.04" from="29110230" to="19922980#2"/>
    <trip id="410" depart="295.20" from="52985347" to="19923007"/>
    <trip id="411" depart="295.92" from="29110230" to="4039300#1"/>
    <trip id="414" depart="298.08" from="29110230" to="432864793#2"/>
    <trip id="417" depart="300.24" from="52985347" to="19923007"/>
    <trip id="418" depart="300.96" from="29110230" to="19922980#2"/>
    <trip id="419" depart="301.68" from="19923100#0" to="432864793#2"/>
    <trip id="420" depart="302.40" from="19922965#0" to="19923064#1"/>
    <trip id="421" depart="303.12" from="29110230" to="4039300#1"/>
    <trip id="425" depart="306.00" from="548557132#0" to="-29110230"/>
    <trip id="426" depart="306.72" from="-432864793#2" to="19923064#1"/>
    <trip id="427" depart="307.44" from="548557132#0" to="432864793#2"/>
    <trip id="429" depart="308.88" from="-432864793#2" to="19923064#1"/>
    <trip id="431" depart="310.32" from="29110230" to="432864793#2"/>
    <trip id="432" depart="311.04" from="-432864793#2" to="4039300#1"/>
    <trip id="434" depart="312.48" from="10345998" to="19923016"/>
    <trip id="435" depart="313.20" from="19923100#0" to="4039300#1"/>
    <trip id="437" depart="314.64" from="548557132#0" to="19923064#1"/>
    <trip id="439" depart="316.08" from="10345998" to="19923016"/>
    <trip id="441" depart="317.52" from="-432864793#2" to="4039300#1"/>
    <trip id="442" depart="318.24" from="548557132#0" to="19923064#1"/>
    <trip id="443" depart="318.96" from="10345998" to="19923016"/>
    <trip id="444" depart="319.68" from="19922965#0" to="19923064#1"/>
    <trip id="448" depart="322.56" from="19923100#0" to="19922980#2"/>
    <trip id="449" depart="323.28" from="29110230" to="19923064#1"/>
    <trip id="451" depart="324.72" from="548557132#0" to="19923064#1"/>
    <trip id="452" depart="325.44" from="10345998" to="19923016"/>
    <trip id="453" depart="326.16" from="29110230" to="4039300#1"/>
    <trip id="454" depart="326.88" from="-432864793#2" to="19923064#1"/>
    <trip id="455" depart="327.60" from="19923100#0" to="432864793#2"/>
    <trip id="456" depart="328.32" from="19922965#0" to="4039300#1"/>
    <trip id="458" depart="329.76" from="29110230" to="19923064#1"/>
    <trip id="459" depart="330.48" from="29110230" to="4039300#1"/>
    <trip id="460" depart="331.20" from="29110230" to="4039300#1"/>
    <trip id="461" depart="331.92" from="29110230" to="432864793#2"/>
    <trip id="463" depart="333.36" from="19923100#0" to="19923064#1"/>
    <trip id="465" depart="334.80" from="19922965#0" to="4039300#1"/>
    <trip id="467" depart="336.24" from="19923100#0" to="432864793#2"/>
    <trip id="468" depart="336.96" from="19923100#0" to="432864793#2"/>
    <trip id="472" depart="339.84" from="19922965#0" to="-29110230"/>
    <trip id="473" depart="340.56" from="548557132#0" to="-29110230"/>
    <trip id="474" depart="341.28" from="548557132#0" to="432864793#2"/>
    <trip id="476" depart="342.72" from="548557132#0" to="4039300#1"/>
    <trip id="477" depart="343.44" from="19922965#0" to="4039300#1"/>
    <trip id="479" depart="344.88" from="19923100#0" to="19923064#1"/>
    <trip id="480" depart="345.60" from="29110230" to="19923064#1"/>
    <trip id="482" depart="347.04" from="-432864793#2" to="19922980#2"/>
    <trip id="483" depart="347.76" from="-432864793#2" to="432864793#2"/>
    <trip id="484" depart="348.48" from="19923100#0" to="432864793#2"/>
    <trip id="488" depart="351.36" from="-432864793#2" to="432864793#2"/>
    <trip id="490" depart="352.80" from="-432864793#2" to="432864793#2"/>
    <trip id="492" depart="354.24" from="29110230" to="4039300#1"/>
    <trip id="495" depart="356.40" from="19922965#0" to="-29110230"/>
    <trip id="497" depart="357.84" from="548557132#0" to="-29110230"/>
    <trip id="499" depart="359.28" from="548557132#0" to="4039300#1"/>
    <trip id="500" depart="360.00" from="-432864793#2" to="19923064#1"/>
    <trip id="501" depart="360.72" from="19923100#0" to="432864793#2"/>
    <trip id="505" depart="363.60" from="29110230" to="19923064#1"/>
    <trip id="506" depart="364.32" from="29110230" to="-29110230"/>
    <trip id="509" depart="366.48" from="-432864793#2" to="4039300#1"/>
    <trip id="513" depart="369.36" from="-432864793#2" to="432864793#2"/>
    <trip id="516" depart="371.52" from="29110230" to="-29110230"/>
    <trip id="517" depart="372.24" from="-432864793#2" to="4039300#1"/>
    <trip id="524" depart="377.28" from="548557132#0" to="-29110230"/>
    <trip id="527" depart="379.44" from="548557132#0" to="-29110230"/>
    <trip id="530" depart="381.60" from="548557132#0" to="-29110230"/>
    <trip id="531" depart="382.32" from="-432864793#2" to="19923064#1"/>
    <trip id="532" depart="383.04" from="-432864793#2" to="19922980#2"/>
    <trip id="534" depart="384.48" from="19922965#0" to="432864793#2"/>
    <trip id="536" depart="385.92" from="29110230" to="-29110230"/>
    <trip id="537" depart="386.64" from="29110230" to="4039300#1"/>
    <trip id="538" depart="387.36" from="29110230" to="4039300#1"/>
    <trip id="540" depart="388.80" from="19923100#0" to="19922980#2"/>
    <trip id="542" depart="390.24" from="19922965#0" to="-29110230"/>
    <trip id="543" depart="390.96" from="19922965#0" to="19923064#1"/>
    <trip id="544" depart="391.68" from="19922965#0" to="19922980#2"/>
    <trip id="545" depart="392.40" from="548557132#0" to="-29110230"/>
    <trip id="547" depart="393.84" from="-432864793#2" to="4039300#1"/>
    <trip id="550" depart="396.00" from="19922965#0" to="-29110230"/>
    <trip id="551" depart="396.72" from="19922965#0" to="19923064#1"/>
    <trip id="555" depart="399.60" from="29110230" to="19922980#2"/>
    <trip id="556" depart="400.32" from="29110230" to="19922980#2"/>
    <trip id="557" depart="401.04" from="-432864793#2" to="4039300#1"/>
    <trip id="558" depart="401.76" from="19922965#0" to="4039300#1"/>
    <trip id="559" depart="402.48" from="29110230" to="4039300#1"/>
    <trip id="562" depart="404.64" from="29110230" to="-29110230"/>
    <trip id="563" depart="405.36" from="548557132#0" to="4039300#1"/>
    <trip id="566" depart="407.52" from="19922965#0" to="-29110230"/>
    <trip id="568" depart="408.96" from="19922965#0" to="-29110230"/>
    <trip id="569" depart="409.68" from="29110230" to="-29110230"/>
    <trip id="572" depart="411.84" from="19922965#0" to="4039300#1"/>
    <trip id="574" depart="413.28" from="-432864793#2" to="-29110230"/>
    <trip id="576" depart="414.72" from="29110230" to="19922980#2"/>
    <trip id="578" depart="416.16" from="19923100#0" to="19922980#2"/>
    <trip id="580" depart="417.60" from="19923100#0" to="19922980#2"/>
    <trip id="582" depart="419.04" from="29110230" to="-29110230"/>
    <trip id="583" depart="419.76" from="19922965#0" to="19923064#1"/>
    <trip id="587" depart="422.64" from="-432864793#2" to="4039300#1"/>
    <trip id="591" depart="425.52" from="-432864793#2" to="432864793#2"/>
    <trip id="592" depart="426.24" from="-432864793#2" to="-29110230"/>
    <trip id="593" depart="426.96" from="548557132#0" to="432864793#2"/>
    <trip id="594" depart="427.68" from="29110230" to="19923064#1"/>
    <trip id="596" depart="429.12" from="-432864793#2" to="-29110230"/>
    <trip id="597" depart="429.84" from="19922965#0" to="4039300#1"/>
    <trip id="598" depart="430.56" from="29110230" to="4039300#1"/>
    <trip id="599" depart="431.28" from="548557132#0" to="-29110230"/>
    <trip id="604" depart="434.88" from="10345998" to="19923016"/>
    <trip id="610" depart="439.20" from="29110230" to="4039300#1"/>
    <trip id="611" depart="439.92" from="29110230" to="19922980#2"/>
    <trip id="614" depart="442.08" from="19923100#0" to="432864793#2"/>
    <trip id="615" depart="442.80" from="19923100#0" to="19923064#1"/>
    <trip id="616" depart="443.52" from="29110230" to="432864793#2"/>
    <trip id="617" depart="444.24" from="29110230" to="19922980#2"/>
    <trip id="619" depart="445.68" from="19922965#0" to="19922980#2"/>
    <trip id="622" depart="447.84" from="-432864793#2" to="4039300#1"/>
    <trip id="623" depart="448.56" from="-432864793#2" to="432864793#2"/>
    <trip id="626" depart="450.72" from="19923100#0" to="4039300#1"/>
    <trip id="631" depart="454.32" from="-432864793#2" to="432864793#2"/>
    <trip id="632" depart="455.04" from="19922965#0" to="4039300#1"/>
    <trip id="633" depart="455.76" from="19923100#0" to="19922980#2"/>
    <trip id="634" depart="456.48" from="10345998" to="19923016"/>
    <trip id="638" depart="459.36" from="19922965#0" to="19923064#1"/>
    <trip id="640" depart="460.80" from="-432864793#2" to="-29110230"/>
    <trip id="641" depart="461.52" from="29110230" to="19922980#2"/>
    <trip id="643" depart="462.96" from="548557132#0" to="432864793#2"/>
    <trip id="644" depart="463.68" from="19922965#0" to="19923064#1"/>
    <trip id="646" depart="465.12" from="548557132#0" to="19923064#1"/>
    <trip id="647" depart="465.84" from="19922965#0" to="19923064#1"/>
    <trip id="649" depart="467.28" from="19922965#0" to="4039300#1"/>
    <trip id="658" depart="473.76" from="-432864793#2" to="4039300#1"/>
    <trip id="659" depart="474.48" from="-432864793#2" to="4039300#1"/>
    <trip id="663" depart="477.36" from="19922965#0" to="19922980#2"/>
    <trip id="667" depart="480.24" from="29110230" to="19922980#2"/>
    <trip id="668" depart="480.96" from="19923100#0" to="19922980#2"/>
    <trip id="672" depart="483.84" from="52985347" to="19923007"/>
    <trip id="673" depart="484.56" from="548557132#0" to="432864793#2"/>
    <trip id="674" depart="485.28" from="19923100#0" to="19922980#2"/>
    <trip id="676" depart="486.72" from="548557132#0" to="4039300#1"/>
    <trip id="680" depart="489.60" from="-432864793#2" to="4039300#1"/>
    <trip id="683" depart="491.76" from="548557132#0" to="19922980#2"/>
    <trip id="684" depart="492.48" from="19923100#0" to="432864793#2"/>
    <trip id="685" depart="493.20" from="10345998" to="19923016"/>
    <trip id="686" depart="493.92" from="19922965#0" to="-29110230"/>
    <trip id="689" depart="496.08" from="19922965#0" to="-29110230"/>
    <trip id="690" depart="496.80" from="548557132#0" to="4039300#1"/>
    <trip id="691" depart="497.52" from="29110230" to="4039300#1"/>
    <trip id="694" depart="499.68" from="-432864793#2" to="19923064#1"/>
    <trip id="695" depart="500.40" from="19923100#0" to="-29110230"/>
    <trip id="696" depart="501.12" from="-432864793#2" to="19922980#2"/>
    <trip id="700" depart="504.00" from="19922965#0" to="-29110230"/>
    <trip id="701" depart="504.72" from="19922965#0" to="4039300#1"/>
    <trip id="702" depart="505.44" from="19923100#0" to="-29110230"/>
    <trip id="703" depart="506.16" from="548557132#0" to="19923064#1"/>
    <trip id="706" depart="508.32" from="19923100#0" to="19923064#1"/>
    <trip id="708" depart="509.76" from="29110230" to="-29110230"/>
    <trip id="709" depart="510.48" from="548557132#0" to="-29110230"/>
    <trip id="713" depart="513.36" from="29110230" to="432864793#2"/>
    <trip id="715" depart="514.80" from="52985347" to="19923007"/>
    <trip id="718" depart="516.96" from="19922965#0" to="-29110230"/>
    <trip id="719" depart="517.68" from="19923100#0" to="4039300#1"/>
    <trip id="721" depart="519.12" from="19923100#0" to="19923064#1"/>
    <trip id="722" depart="519.84" from="29110230" to="4039300#1"/>
    <trip id="723" depart="520.56" from="-432864793#2" to="4039300#1"/>
    <trip id="725" depart="522.00" from="-432864793#2" to="19922980#2"/>
    <trip id="726" depart="522.72" from="-432864793#2" to="432864793#2"/>
    <trip id="727" depart="523.44" from="19923100#0" to="432864793#2"/>
    <trip id="728" depart="524.16" from="19923100#0" to="19922980#2"/>
    <trip id="730" depart="525.60" from="19922965#0" to="4039300#1"/>
    <trip id="733" depart="527.76" from="548557132#0" to="4039300#1"/>
    <trip id="736" depart="529.92" from="19923100#0" to="432864793#2"/>
    <trip id="737" depart="530.64" from="19923100#0" to="4039300#1"/>
    <trip id="739" depart="532.08" from="29110230" to="4039300#1"/>
    <trip id="741" depart="533.52" from="-432864793#2" to="19923064#1"/>
    <trip id="742" depart="534.24" from="19922965#0" to="19923064#1"/>
    <trip id="743" depart="534.96" from="19922965#0" to="19923064#1"/>
    <trip id="744" depart="535.68" from="19922965#0" to="-29110230"/>
    <trip id="746" depart="537.12" from="548557132#0" to="19922980#2"/>
    <trip id="747" depart="537.84" from="548557132#0" to="432864793#2"/>
    <trip id="748" depart="538.56" from="-432864793#2" to="19923064#1"/>
    <trip id="749" depart="539.28" from="19922965#0" to="4039300#1"/>
    <trip id="750" depart="540.00" from="29110230" to="432864793#2"/>
    <trip id="751" depart="540.72" from="-432864793#2" to="19923064#1"/>
    <trip id="753" depart="542.16" from="-432864793#2" to="4039300#1"/>
    <trip id="755" depart="543.60" from="19923100#0" to="19923064#1"/>
    <trip id="756" depart="544.32" from="29110230" to="432864793#2"/>
    <trip id="757" depart="545.04" from="19922965#0" to="4039300#1"/>
    <trip id="759" depart="546.48" from="19922965#0" to="19923064#1"/>
    <trip id="764" depart="550.08" from="19923100#0" to="432864793#2"/>
    <trip id="766" depart="551.52" from="19923100#0" to="-29110230"/>
    <trip id="769" depart="553.68" from="-432864793#2" to="19923064#1"/>
    <trip id="770" depart="554.40" from="52985347" to="19923007"/>
    <trip id="771" depart="555.12" from="19922965#0" to="-29110230"/>