<?xml version="1.0" encoding="UTF-8"?>

<!-- generated on 2024-09-03 01:38:26 by Eclipse SUMO netconvert Version 1.20.0
<configuration xmlns:xsi="http://www.w3.org/2001/XMLSchema-instance" xsi:noNamespaceSchemaLocation="http://sumo.dlr.de/xsd/netconvertConfiguration.xsd">

    <input>
        <osm-files value="train_files/roundabout/hard/osm_files/map(57).osm"/>
    </input>

    <output>
        <output-file value="train_files/roundabout/hard/outputs/map(57)_dict/map(57)/map(57).net.xml"/>
    </output>

    <projection>
        <proj.utm value="true"/>
    </projection>

    <building_defaults>
        <default.junctions.keep-clear value="false"/>
    </building_defaults>

</configuration>
-->

<net version="1.20" junctionCornerDetail="5" limitTurnSpeed="5.50" xmlns:xsi="http://www.w3.org/2001/XMLSchema-instance" xsi:noNamespaceSchemaLocation="http://sumo.dlr.de/xsd/net_file.xsd">

    <location netOffset="-453250.99,-5416392.14" convBoundary="0.00,0.00,1083.36,421.44" origBoundary="2.362106,48.898634,2.376902,48.921943" projParameter="+proj=utm +zone=31 +ellps=WGS84 +datum=WGS84 +units=m +no_defs"/>

    <type id="highway.cycleway" priority="1" numLanes="1" speed="5.56" allow="bicycle" oneway="0" width="2.00"/>
    <type id="highway.footway" priority="1" numLanes="1" speed="2.78" allow="pedestrian" oneway="1" width="2.00"/>
    <type id="highway.pedestrian" priority="1" numLanes="1" speed="2.78" allow="pedestrian" oneway="1" width="2.00"/>
    <type id="highway.primary" priority="12" numLanes="2" speed="27.78" disallow="tram rail_urban rail rail_electric rail_fast ship container cable_car subway aircraft wheelchair scooter drone" oneway="0"/>
    <type id="highway.primary_link" priority="7" numLanes="1" speed="22.22" disallow="tram rail_urban rail rail_electric rail_fast ship container cable_car subway aircraft wheelchair scooter drone" oneway="0"/>
    <type id="highway.residential" priority="3" numLanes="1" speed="13.89" disallow="tram rail_urban rail rail_electric rail_fast ship container cable_car subway aircraft wheelchair scooter drone" oneway="0"/>
    <type id="highway.service" priority="1" numLanes="1" speed="5.56" allow="pedestrian delivery bicycle" oneway="0"/>
    <type id="highway.track" priority="1" numLanes="1" speed="5.56" allow="pedestrian motorcycle moped bicycle" oneway="0"/>
    <type id="highway.trunk" priority="13" numLanes="2" speed="27.78" disallow="pedestrian bicycle tram rail_urban rail rail_electric rail_fast ship container cable_car subway aircraft wheelchair scooter drone" oneway="0"/>
    <type id="highway.trunk_link" priority="8" numLanes="1" speed="22.22" disallow="pedestrian bicycle tram rail_urban rail rail_electric rail_fast ship container cable_car subway aircraft wheelchair scooter drone" oneway="0"/>

    <edge id=":10030339781_0" function="internal">
        <lane id=":10030339781_0_0" index="0" allow="bicycle" speed="5.56" length="5.52" width="2.00" shape="662.94,147.22 662.90,148.86 662.89,149.98 662.97,151.10 663.15,152.73"/>
    </edge>
    <edge id=":10030339785_0" function="internal">
        <lane id=":10030339785_0_0" index="0" allow="bicycle" speed="5.56" length="0.23" width="2.00" shape="666.37,93.74 666.37,93.97"/>
    </edge>
    <edge id=":10098621998_0" function="internal">
        <lane id=":10098621998_0_0" index="0" allow="pedestrian delivery bicycle" speed="3.65" length="4.67" shape="282.57,269.81 281.35,269.05 280.93,268.26 281.30,267.45 282.48,266.61"/>
    </edge>
    <edge id=":10151693140_0" function="internal">
        <lane id=":10151693140_0_0" index="0" allow="bicycle" speed="5.56" length="5.06" width="2.00" shape="712.72,263.05 716.18,266.75"/>
    </edge>
    <edge id=":10151693142_0" function="internal">
        <lane id=":10151693142_0_0" index="0" allow="bicycle" speed="4.83" length="4.04" width="2.00" shape="705.25,268.16 704.42,267.49 703.53,267.21 702.60,267.33 701.62,267.84"/>
    </edge>
    <edge id=":10151693142_1" function="internal">
        <lane id=":10151693142_1_0" index="0" disallow="tram rail_urban rail rail_electric rail_fast ship container cable_car subway aircraft wheelchair scooter drone" speed="8.33" length="3.25" shape="705.69,267.75 705.03,267.04 704.58,266.56 704.10,266.10 703.39,265.46"/>
    </edge>
    <edge id=":10151693142_2" function="internal">
        <lane id=":10151693142_2_0" index="0" allow="bicycle" speed="4.17" length="3.12" width="2.00" shape="709.21,260.54 709.10,261.14 709.51,261.77 710.17,262.38 710.80,262.96"/>
    </edge>
    <edge id=":10151693142_3" function="internal">
        <lane id=":10151693142_3_0" index="0" allow="bicycle" speed="5.56" length="10.59" width="2.00" shape="709.21,260.54 707.27,262.90 705.76,264.56 704.09,266.03 701.62,267.84"/>
    </edge>
    <edge id=":10151693142_4" function="internal">
        <lane id=":10151693142_4_0" index="0" allow="bicycle" speed="6.11" length="8.48" width="2.00" shape="709.21,260.54 706.89,263.24 705.08,265.04 703.78,265.93 702.99,265.91"/>
    </edge>
    <edge id=":10151693142_5" function="internal">
        <lane id=":10151693142_5_0" index="0" disallow="tram rail_urban rail rail_electric rail_fast ship container cable_car subway aircraft wheelchair scooter drone" speed="8.33" length="3.70" shape="707.62,260.66 708.48,261.43 709.04,261.97 709.58,262.54 710.36,263.37"/>
        <lane id=":10151693142_5_1" index="1" disallow="tram rail_urban rail rail_electric rail_fast ship container cable_car subway aircraft wheelchair scooter drone" speed="8.33" length="3.70" shape="705.51,263.06 706.29,263.77 706.81,264.27 707.31,264.79 708.02,265.56"/>
    </edge>
    <edge id=":10151693142_7" function="internal">
        <lane id=":10151693142_7_0" index="0" allow="bicycle" speed="5.07" length="1.77" width="2.00" shape="705.11,263.51 705.33,264.17 704.82,265.11"/>
    </edge>
    <edge id=":10151693142_8" function="internal">
        <lane id=":10151693142_8_0" index="0" allow="bicycle" speed="5.07" length="4.21" width="2.00" shape="704.82,265.11 703.59,266.34 701.62,267.84"/>
    </edge>
    <edge id=":10151693145_0" function="internal">
        <lane id=":10151693145_0_0" index="0" allow="bicycle" speed="5.56" length="4.80" width="2.00" shape="704.52,239.05 704.61,240.47 704.71,241.44 704.90,242.40 705.26,243.78"/>
    </edge>
    <edge id=":10151693145_1" function="internal">
        <lane id=":10151693145_1_0" index="0" allow="bicycle" speed="3.71" length="2.35" width="2.00" shape="704.91,241.45 705.26,243.78"/>
    </edge>
    <edge id=":11372347508_0" function="internal">
        <lane id=":11372347508_0_0" index="0" disallow="tram rail_urban rail rail_electric rail_fast ship container cable_car subway aircraft wheelchair scooter drone" speed="8.33" length="5.31" shape="710.06,272.42 706.43,268.54"/>
    </edge>
    <edge id=":11372347508_1" function="internal">
        <lane id=":11372347508_1_0" index="0" disallow="tram rail_urban rail rail_electric rail_fast ship container cable_car subway aircraft wheelchair scooter drone" speed="8.33" length="5.31" shape="711.11,264.17 714.73,268.05"/>
        <lane id=":11372347508_1_1" index="1" disallow="tram rail_urban rail rail_electric rail_fast ship container cable_car subway aircraft wheelchair scooter drone" speed="8.33" length="5.31" shape="708.77,266.36 712.40,270.23"/>
    </edge>
    <edge id=":11987457619_0" function="internal">
        <lane id=":11987457619_0_0" index="0" allow="bicycle" speed="5.56" length="5.35" width="2.00" shape="594.91,251.86 594.34,246.54"/>
    </edge>
    <edge id=":11987457619_1" function="internal">
        <lane id=":11987457619_1_0" index="0" allow="bicycle" speed="5.56" length="3.83" width="2.00" shape="596.03,249.84 595.25,249.02 594.77,248.38 594.50,247.64 594.34,246.54"/>
    </edge>
    <edge id=":1787949267_0" function="internal">
        <lane id=":1787949267_0_0" index="0" allow="bus bicycle" speed="8.33" length="0.30" shape="661.49,123.54 661.47,123.84"/>
        <lane id=":1787949267_0_1" index="1" disallow="tram rail_urban rail rail_electric rail_fast ship container cable_car subway aircraft wheelchair scooter drone" speed="8.33" length="0.30" shape="658.29,123.41 658.28,123.71"/>
        <lane id=":1787949267_0_2" index="2" disallow="tram rail_urban rail rail_electric rail_fast ship container cable_car subway aircraft wheelchair scooter drone" speed="8.33" length="0.30" shape="655.09,123.28 655.08,123.58"/>
    </edge>
    <edge id=":1787949270_0" function="internal">
        <lane id=":1787949270_0_0" index="0" disallow="pedestrian bicycle tram rail_urban rail rail_electric rail_fast ship container cable_car subway aircraft wheelchair scooter drone" speed="8.33" length="0.40" shape="701.68,176.89 701.74,176.88 701.78,176.87 701.82,176.86 701.87,176.84"/>
        <lane id=":1787949270_0_1" index="1" disallow="pedestrian bicycle tram rail_urban rail rail_electric rail_fast ship container cable_car subway aircraft wheelchair scooter drone" speed="8.33" length="0.40" shape="702.43,180.01 702.60,179.96 702.72,179.93 702.84,179.89 703.00,179.83"/>
    </edge>
    <edge id=":1787949271_0" function="internal">
        <lane id=":1787949271_0_0" index="0" disallow="pedestrian bicycle tram rail_urban rail rail_electric rail_fast ship container cable_car subway aircraft wheelchair scooter drone" speed="8.33" length="0.30" shape="581.54,178.48 581.84,178.48"/>
        <lane id=":1787949271_0_1" index="1" disallow="pedestrian bicycle tram rail_urban rail rail_electric rail_fast ship container cable_car subway aircraft wheelchair scooter drone" speed="8.33" length="0.30" shape="581.54,181.68 581.84,181.68"/>
    </edge>
    <edge id=":1787949275_0" function="internal">
        <lane id=":1787949275_0_0" index="0" disallow="pedestrian bicycle tram rail_urban rail rail_electric rail_fast ship container cable_car subway aircraft wheelchair scooter drone" speed="22.22" length="0.30" shape="588.56,243.52 588.25,243.53"/>
        <lane id=":1787949275_0_1" index="1" disallow="pedestrian bicycle tram rail_urban rail rail_electric rail_fast ship container cable_car subway aircraft wheelchair scooter drone" speed="22.22" length="0.30" shape="588.48,240.32 588.18,240.33"/>
    </edge>
    <edge id=":209142433_0" function="internal">
        <lane id=":209142433_0_0" index="0" disallow="tram rail_urban rail rail_electric rail_fast ship container cable_car subway aircraft wheelchair scooter drone" speed="8.33" length="13.30" shape="638.07,276.62 634.19,276.73 631.56,277.34 629.05,278.49 625.48,280.20"/>
        <lane id=":209142433_0_1" index="1" disallow="tram rail_urban rail rail_electric rail_fast ship container cable_car subway aircraft wheelchair scooter drone" speed="8.33" length="14.18" shape="638.07,276.62 633.86,276.25 630.90,275.82 628.04,275.95 624.17,277.28"/>
    </edge>
    <edge id=":209142433_2" function="internal">
        <lane id=":209142433_2_0" index="0" disallow="tram rail_urban rail rail_electric rail_fast ship container cable_car subway aircraft wheelchair scooter drone" speed="8.33" length="14.61" shape="638.07,276.62 633.60,276.14 630.70,274.97 628.01,273.07 624.19,270.43"/>
        <lane id=":209142433_2_1" index="1" disallow="tram rail_urban rail rail_electric rail_fast ship container cable_car subway aircraft wheelchair scooter drone" speed="8.33" length="14.61" shape="638.16,273.43 633.90,272.91 631.17,271.68 628.64,269.75 625.01,267.17"/>
        <lane id=":209142433_2_2" index="2" disallow="tram rail_urban rail rail_electric rail_fast ship container cable_car subway aircraft wheelchair scooter drone" speed="8.33" length="14.61" shape="638.24,270.23 634.20,269.68 631.64,268.39 629.28,266.43 625.83,263.91"/>
        <lane id=":209142433_2_3" index="3" disallow="tram rail_urban rail rail_electric rail_fast ship container cable_car subway aircraft wheelchair scooter drone" speed="8.33" length="14.61" shape="638.33,267.03 634.49,266.45 632.11,265.10 629.92,263.11 626.66,260.65"/>
    </edge>
    <edge id=":209142437_0" function="internal">
        <lane id=":209142437_0_0" index="0" disallow="tram rail_urban rail rail_electric rail_fast ship container cable_car subway aircraft wheelchair scooter drone" speed="8.33" length="1.45" shape="607.54,256.71 607.94,257.25"/>
        <lane id=":209142437_0_1" index="1" disallow="tram rail_urban rail rail_electric rail_fast ship container cable_car subway aircraft wheelchair scooter drone" speed="8.33" length="1.45" shape="609.71,254.35 610.46,255.27"/>
        <lane id=":209142437_0_2" index="2" disallow="tram rail_urban rail rail_electric rail_fast ship container cable_car subway aircraft wheelchair scooter drone" speed="8.33" length="1.45" shape="611.87,251.99 612.99,253.30"/>
        <lane id=":209142437_0_3" index="3" disallow="tram rail_urban rail rail_electric rail_fast ship container cable_car subway aircraft wheelchair scooter drone" speed="8.33" length="1.45" shape="614.04,249.64 615.51,251.32"/>
    </edge>
    <edge id=":209142439_0" function="internal">
        <lane id=":209142439_0_0" index="0" disallow="pedestrian bicycle tram rail_urban rail rail_electric rail_fast ship container cable_car subway aircraft wheelchair scooter drone" speed="8.33" length="22.31" shape="607.80,257.10 593.24,240.20"/>
    </edge>
    <edge id=":209142439_1" function="internal">
        <lane id=":209142439_1_0" index="0" disallow="tram rail_urban rail rail_electric rail_fast ship container cable_car subway aircraft wheelchair scooter drone" speed="8.33" length="22.29" shape="607.80,257.10 602.94,251.41 600.14,246.94 598.80,241.89 598.33,234.48"/>
        <lane id=":209142439_1_1" index="1" disallow="tram rail_urban rail rail_electric rail_fast ship container cable_car subway aircraft wheelchair scooter drone" speed="8.33" length="22.29" shape="610.33,255.12 605.85,249.91 603.24,245.82 601.98,241.20 601.53,234.40"/>
        <lane id=":209142439_1_2" index="2" disallow="tram rail_urban rail rail_electric rail_fast ship container cable_car subway aircraft wheelchair scooter drone" speed="8.33" length="22.29" shape="612.85,253.15 608.76,248.40 606.34,244.69 605.15,240.50 604.73,234.32"/>
        <lane id=":209142439_1_3" index="3" disallow="tram rail_urban rail rail_electric rail_fast ship container cable_car subway aircraft wheelchair scooter drone" speed="8.33" length="22.29" shape="615.38,251.17 611.66,246.90 609.45,243.57 608.33,239.81 607.93,234.24"/>
    </edge>
    <edge id=":209142439_5" function="internal">
        <lane id=":209142439_5_0" index="0" disallow="pedestrian bicycle tram rail_urban rail rail_electric rail_fast ship container cable_car subway aircraft wheelchair scooter drone" speed="7.12" length="12.05" shape="597.32,253.29 597.45,248.92 596.82,245.82 595.44,243.98 593.31,243.40"/>
    </edge>
    <edge id=":209142439_6" function="internal">
        <lane id=":209142439_6_0" index="0" disallow="tram rail_urban rail rail_electric rail_fast ship container cable_car subway aircraft wheelchair scooter drone" speed="8.33" length="19.35" shape="597.32,253.29 597.41,247.73 596.67,243.94 595.71,240.14 595.14,234.56"/>
        <lane id=":209142439_6_1" index="1" disallow="tram rail_urban rail rail_electric rail_fast ship container cable_car subway aircraft wheelchair scooter drone" speed="8.33" length="19.35" shape="600.50,253.62 600.60,247.94 599.87,244.06 598.91,240.18 598.33,234.48"/>
        <lane id=":209142439_6_2" index="2" disallow="tram rail_urban rail rail_electric rail_fast ship container cable_car subway aircraft wheelchair scooter drone" speed="8.33" length="19.35" shape="603.69,253.94 603.80,248.14 603.07,244.18 602.11,240.22 601.53,234.40"/>
    </edge>
    <edge id=":209142444_0" function="internal">
        <lane id=":209142444_0_0" index="0" disallow="tram rail_urban rail rail_electric rail_fast ship container cable_car subway aircraft wheelchair scooter drone" speed="6.12" length="2.48" shape="597.11,190.68 597.12,188.20"/>
        <lane id=":209142444_0_1" index="1" disallow="tram rail_urban rail rail_electric rail_fast ship container cable_car subway aircraft wheelchair scooter drone" speed="8.33" length="4.96" shape="597.11,190.68 599.86,186.55"/>
        <lane id=":209142444_0_2" index="2" disallow="tram rail_urban rail rail_electric rail_fast ship container cable_car subway aircraft wheelchair scooter drone" speed="8.33" length="7.97" shape="597.11,190.68 602.60,184.89"/>
    </edge>
    <edge id=":209142444_3" function="internal">
        <lane id=":209142444_3_0" index="0" disallow="tram rail_urban rail rail_electric rail_fast ship container cable_car subway aircraft wheelchair scooter drone" speed="8.33" length="5.41" shape="600.28,191.10 600.68,188.83 601.22,187.32 602.11,185.95 603.52,184.09"/>
        <lane id=":209142444_3_1" index="1" disallow="tram rail_urban rail rail_electric rail_fast ship container cable_car subway aircraft wheelchair scooter drone" speed="8.33" length="5.41" shape="603.45,191.52 603.78,189.73 604.23,188.55 604.95,187.48 606.08,186.01"/>
        <lane id=":209142444_3_2" index="2" disallow="tram rail_urban rail rail_electric rail_fast ship container cable_car subway aircraft wheelchair scooter drone" speed="8.33" length="5.41" shape="606.63,191.94 606.88,190.63 607.24,189.77 607.80,189.00 608.64,187.93"/>
        <lane id=":209142444_3_3" index="3" disallow="tram rail_urban rail rail_electric rail_fast ship container cable_car subway aircraft wheelchair scooter drone" speed="8.32" length="5.41" shape="609.80,192.36 609.98,191.53 610.25,191.00 610.65,190.53 611.20,189.85"/>
    </edge>
    <edge id=":209142445_0" function="internal">
        <lane id=":209142445_0_0" index="0" allow="pedestrian motorcycle moped bicycle" speed="6.48" length="8.67" shape="617.13,188.05 616.19,186.55 616.16,184.78 617.03,182.74 618.81,180.43"/>
    </edge>
    <edge id=":209142445_1" function="internal">
        <lane id=":209142445_1_0" index="0" allow="pedestrian motorcycle moped bicycle" speed="3.65" length="4.67" shape="617.13,188.05 616.84,186.64 617.11,185.79 617.96,185.50 619.38,185.77"/>
    </edge>
    <edge id=":209142445_2" function="internal">
        <lane id=":209142445_2_0" index="0" disallow="pedestrian tram rail_urban rail rail_electric rail_fast ship container cable_car subway aircraft wheelchair scooter drone" speed="8.33" length="9.22" shape="604.14,178.83 605.75,178.57 607.55,177.68 609.53,176.14 611.71,173.96"/>
        <lane id=":209142445_2_1" index="1" disallow="pedestrian tram rail_urban rail rail_electric rail_fast ship container cable_car subway aircraft wheelchair scooter drone" speed="8.33" length="12.00" shape="604.01,182.02 606.33,181.73 608.78,180.64 611.36,178.78 614.08,176.12"/>
    </edge>
    <edge id=":209142445_4" function="internal">
        <lane id=":209142445_4_0" index="0" allow="motorcycle moped bicycle" speed="6.95" length="16.21" shape="604.01,182.02 609.24,182.26 613.32,182.71 616.58,183.75 619.38,185.77"/>
    </edge>
    <edge id=":209142445_5" function="internal">
        <lane id=":209142445_5_0" index="0" disallow="tram rail_urban rail rail_electric rail_fast ship container cable_car subway aircraft wheelchair scooter drone" speed="8.33" length="12.37" shape="603.64,183.93 605.91,180.88 607.50,178.80 609.17,176.80 611.71,173.96"/>
        <lane id=":209142445_5_1" index="1" disallow="tram rail_urban rail rail_electric rail_fast ship container cable_car subway aircraft wheelchair scooter drone" speed="8.33" length="12.37" shape="606.20,185.85 608.42,182.87 609.96,180.84 611.59,178.89 614.08,176.12"/>
        <lane id=":209142445_5_2" index="2" disallow="tram rail_urban rail rail_electric rail_fast ship container cable_car subway aircraft wheelchair scooter drone" speed="8.33" length="12.37" shape="608.76,187.77 610.93,184.86 612.43,182.88 614.02,180.98 616.44,178.28"/>
        <lane id=":209142445_5_3" index="3" disallow="tram rail_urban rail rail_electric rail_fast ship container cable_car subway aircraft wheelchair scooter drone" speed="8.33" length="12.37" shape="611.32,189.69 613.43,186.85 614.90,184.92 616.45,183.06 618.81,180.43"/>
    </edge>
    <edge id=":209142445_9" function="internal">
        <lane id=":209142445_9_0" index="0" allow="pedestrian motorcycle moped bicycle" speed="6.55" length="10.10" shape="611.32,189.69 613.74,186.89 615.89,185.30 617.77,184.93 619.38,185.77"/>
    </edge>
    <edge id=":209142450_0" function="internal">
        <lane id=":209142450_0_0" index="0" allow="bus bicycle" speed="7.19" length="8.47" shape="660.26,153.28 660.43,155.68 661.13,157.62 662.38,159.10 664.17,160.12"/>
    </edge>
    <edge id=":209142450_1" function="internal">
        <lane id=":209142450_1_0" index="0" allow="bicycle" speed="5.68" length="10.40" width="2.00" shape="657.67,153.18 657.88,156.67 658.88,158.44 660.68,158.51 663.26,156.86"/>
    </edge>
    <edge id=":209142450_2" function="internal">
        <lane id=":209142450_2_0" index="0" disallow="tram rail_urban rail rail_electric rail_fast ship container cable_car subway aircraft wheelchair scooter drone" speed="8.33" length="12.48" shape="657.07,153.15 657.32,156.61 658.40,159.42 660.30,161.59 663.03,163.11"/>
        <lane id=":209142450_2_1" index="1" disallow="tram rail_urban rail rail_electric rail_fast ship container cable_car subway aircraft wheelchair scooter drone" speed="8.33" length="16.50" shape="653.87,153.02 654.22,157.53 655.67,161.22 658.22,164.07 661.88,166.10"/>
    </edge>
    <edge id=":209142450_4" function="internal">
        <lane id=":209142450_4_0" index="0" allow="bicycle" speed="6.95" length="14.46" width="2.00" shape="649.24,156.72 653.85,157.30 657.44,158.09 660.44,158.23 663.26,156.86"/>
    </edge>
    <edge id=":209142450_5" function="internal">
        <lane id=":209142450_5_0" index="0" disallow="tram rail_urban rail rail_electric rail_fast ship container cable_car subway aircraft wheelchair scooter drone" speed="8.33" length="13.75" shape="649.22,157.32 653.77,157.49 656.88,157.80 659.91,158.58 664.17,160.12"/>
        <lane id=":209142450_5_1" index="1" disallow="tram rail_urban rail rail_electric rail_fast ship container cable_car subway aircraft wheelchair scooter drone" speed="8.33" length="13.75" shape="649.11,160.52 653.34,160.68 656.24,160.96 659.06,161.67 663.03,163.11"/>
        <lane id=":209142450_5_2" index="2" disallow="tram rail_urban rail rail_electric rail_fast ship container cable_car subway aircraft wheelchair scooter drone" speed="8.33" length="13.75" shape="648.99,163.72 652.91,163.86 655.60,164.12 658.21,164.77 661.88,166.10"/>
        <lane id=":209142450_5_3" index="3" disallow="tram rail_urban rail rail_electric rail_fast ship container cable_car subway aircraft wheelchair scooter drone" speed="8.33" length="13.75" shape="648.88,166.91 652.48,167.04 654.95,167.27 657.36,167.87 660.74,169.09"/>
    </edge>
    <edge id=":209142453_0" function="internal">
        <lane id=":209142453_0_0" index="0" allow="bicycle" speed="6.95" length="9.13" width="2.00" shape="692.97,177.19 692.18,178.37 692.08,180.20 692.67,182.66 693.96,185.75"/>
    </edge>
    <edge id=":209142453_1" function="internal">
        <lane id=":209142453_1_0" index="0" allow="bicycle" speed="5.56" length="17.31" width="2.00" shape="692.97,177.19 679.71,188.32"/>
    </edge>
    <edge id=":209142453_2" function="internal">
        <lane id=":209142453_2_0" index="0" allow="bicycle" speed="2.89" length="2.92" width="2.00" shape="692.97,177.19 692.07,177.25 691.56,177.00 691.46,176.45 691.75,175.60"/>
    </edge>
    <edge id=":209142453_3" function="internal">
        <lane id=":209142453_3_0" index="0" allow="bicycle" speed="6.60" length="7.36" width="2.00" shape="685.17,173.06 687.46,174.63 689.32,175.57 690.75,175.89 691.75,175.60"/>
    </edge>
    <edge id=":209142453_4" function="internal">
        <lane id=":209142453_4_0" index="0" disallow="pedestrian bicycle tram rail_urban rail rail_electric rail_fast ship container cable_car subway aircraft wheelchair scooter drone" speed="8.33" length="10.52" shape="684.81,173.54 687.13,175.71 688.71,177.52 690.47,178.65 693.33,178.77"/>
    </edge>
    <edge id=":209142453_5" function="internal">
        <lane id=":209142453_5_0" index="0" disallow="tram rail_urban rail rail_electric rail_fast ship container cable_car subway aircraft wheelchair scooter drone" speed="8.33" length="13.81" shape="684.81,173.54 688.26,176.44 690.17,178.92 691.55,181.82 693.42,186.01"/>
        <lane id=":209142453_5_1" index="1" disallow="tram rail_urban rail rail_electric rail_fast ship container cable_car subway aircraft wheelchair scooter drone" speed="8.33" length="13.81" shape="682.51,175.81 685.71,178.51 687.49,180.80 688.79,183.49 690.53,187.39"/>
        <lane id=":209142453_5_2" index="2" disallow="tram rail_urban rail rail_electric rail_fast ship container cable_car subway aircraft wheelchair scooter drone" speed="8.33" length="13.81" shape="680.20,178.08 683.16,180.57 684.82,182.68 686.03,185.17 687.64,188.77"/>
        <lane id=":209142453_5_3" index="3" disallow="tram rail_urban rail rail_electric rail_fast ship container cable_car subway aircraft wheelchair scooter drone" speed="8.33" length="13.81" shape="677.89,180.35 680.62,182.63 682.15,184.57 683.27,186.84 684.75,190.15"/>
    </edge>
    <edge id=":209142453_9" function="internal">
        <lane id=":209142453_9_0" index="0" allow="pedestrian motorcycle moped bicycle" speed="6.01" length="9.39" shape="677.89,180.35 680.19,182.47 681.21,184.43 680.93,186.21 679.37,187.83"/>
    </edge>
    <edge id=":209142453_10" function="internal">
        <lane id=":209142453_10_0" index="0" allow="bicycle" speed="5.56" length="17.16" width="2.00" shape="677.20,184.71 691.75,175.60"/>
    </edge>
    <edge id=":209142453_11" function="internal">
        <lane id=":209142453_11_0" index="0" allow="motorcycle moped" speed="6.95" length="16.97" shape="677.55,185.20 680.56,183.15 683.81,181.33 687.87,179.84 693.33,178.77"/>
        <lane id=":209142453_11_1" index="1" allow="motorcycle moped" speed="6.95" length="16.97" shape="677.55,185.20 680.66,183.64 684.11,182.91 688.33,182.50 693.74,181.94"/>
    </edge>
    <edge id=":209142453_13" function="internal">
        <lane id=":209142453_13_0" index="0" allow="pedestrian motorcycle moped bicycle" speed="6.47" length="10.01" shape="677.55,185.20 679.36,184.56 681.17,185.17 682.96,187.03 684.75,190.15"/>
    </edge>
    <edge id=":209142453_14" function="internal">
        <lane id=":209142453_14_0" index="0" allow="pedestrian motorcycle moped bicycle" speed="3.65" length="4.67" shape="677.55,185.20 678.99,185.17 679.77,185.60 679.90,186.49 679.37,187.83"/>
    </edge>
    <edge id=":209142457_0" function="internal">
        <lane id=":209142457_0_0" index="0" disallow="tram rail_urban rail rail_electric rail_fast ship container cable_car subway aircraft wheelchair scooter drone" speed="8.33" length="18.52" shape="699.39,216.12 699.71,221.61 700.01,225.37 700.69,229.07 702.17,234.35"/>
        <lane id=":209142457_0_1" index="1" disallow="tram rail_urban rail rail_electric rail_fast ship container cable_car subway aircraft wheelchair scooter drone" speed="8.33" length="19.23" shape="696.20,216.34 696.54,222.04 696.85,225.95 697.56,229.79 699.10,235.27"/>
    </edge>
    <edge id=":209142457_2" function="internal">
        <lane id=":209142457_2_0" index="0" disallow="tram rail_urban rail rail_electric rail_fast ship container cable_car subway aircraft wheelchair scooter drone" speed="8.33" length="18.76" shape="696.20,216.34 696.51,222.10 696.33,226.07 695.49,229.97 693.83,235.50"/>
        <lane id=":209142457_2_1" index="1" disallow="tram rail_urban rail rail_electric rail_fast ship container cable_car subway aircraft wheelchair scooter drone" speed="8.33" length="18.76" shape="693.00,216.56 693.29,222.10 693.09,225.91 692.25,229.66 690.65,234.98"/>
        <lane id=":209142457_2_2" index="2" disallow="tram rail_urban rail rail_electric rail_fast ship container cable_car subway aircraft wheelchair scooter drone" speed="8.33" length="18.76" shape="689.81,216.78 690.07,222.09 689.85,225.75 689.02,229.34 687.46,234.45"/>
    </edge>
    <edge id=":209142461_0" function="internal">
        <lane id=":209142461_0_0" index="0" disallow="tram rail_urban rail rail_electric rail_fast ship container cable_car subway aircraft wheelchair scooter drone" speed="8.33" length="0.43" shape="691.71,242.43 691.53,242.97"/>
        <lane id=":209142461_0_1" index="1" disallow="tram rail_urban rail rail_electric rail_fast ship container cable_car subway aircraft wheelchair scooter drone" speed="8.33" length="0.43" shape="688.65,241.49 688.51,241.90"/>
        <lane id=":209142461_0_2" index="2" disallow="tram rail_urban rail rail_electric rail_fast ship container cable_car subway aircraft wheelchair scooter drone" speed="8.33" length="0.43" shape="685.59,240.55 685.50,240.82"/>
    </edge>
    <edge id=":209142463_0" function="internal">
        <lane id=":209142463_0_0" index="0" disallow="tram rail_urban rail rail_electric rail_fast ship container cable_car subway aircraft wheelchair scooter drone" speed="8.33" length="8.24" shape="691.95,262.64 689.19,262.26 686.93,262.22 685.17,262.52 683.92,263.16"/>
        <lane id=":209142463_0_1" index="1" disallow="tram rail_urban rail rail_electric rail_fast ship container cable_car subway aircraft wheelchair scooter drone" speed="8.33" length="10.99" shape="692.53,259.50 689.06,259.05 686.13,259.10 683.75,259.64 681.90,260.67"/>
    </edge>
    <edge id=":209142463_2" function="internal">
        <lane id=":209142463_2_0" index="0" disallow="tram rail_urban rail rail_electric rail_fast ship container cable_car subway aircraft wheelchair scooter drone" speed="8.33" length="14.16" shape="693.85,255.73 690.16,256.96 687.51,257.59 685.04,258.53 681.90,260.67"/>