<?xml version="1.0" encoding="UTF-8"?>

<!-- generated on 2024-09-03 01:38:31 by Eclipse SUMO netconvert Version 1.20.0
<configuration xmlns:xsi="http://www.w3.org/2001/XMLSchema-instance" xsi:noNamespaceSchemaLocation="http://sumo.dlr.de/xsd/netconvertConfiguration.xsd">

    <input>
        <osm-files value="train_files/roundabout/hard/osm_files/map(74).osm"/>
    </input>

    <output>
        <output-file value="train_files/roundabout/hard/outputs/map(74)_dict/map(74)/map(74).net.xml"/>
    </output>

    <projection>
        <proj.utm value="true"/>
    </projection>

    <building_defaults>
        <default.junctions.keep-clear value="false"/>
    </building_defaults>

</configuration>
-->

<net version="1.20" junctionCornerDetail="5" limitTurnSpeed="5.50" xmlns:xsi="http://www.w3.org/2001/XMLSchema-instance" xsi:noNamespaceSchemaLocation="http://sumo.dlr.de/xsd/net_file.xsd">

    <location netOffset="-319822.43,-5397696.66" convBoundary="0.00,0.00,9287.58,5613.42" origBoundary="0.550897,48.706257,0.674708,48.759324" projParameter="+proj=utm +zone=31 +ellps=WGS84 +datum=WGS84 +units=m +no_defs"/>

    <type id="highway.primary" priority="12" numLanes="2" speed="27.78" disallow="tram rail_urban rail rail_electric rail_fast ship container cable_car subway aircraft wheelchair scooter drone" oneway="0"/>
    <type id="highway.secondary" priority="11" numLanes="1" speed="27.78" disallow="tram rail_urban rail rail_electric rail_fast ship container cable_car subway aircraft wheelchair scooter drone" oneway="0"/>
    <type id="highway.service" priority="1" numLanes="1" speed="5.56" allow="pedestrian delivery bicycle" oneway="0"/>

    <edge id=":10548612675_0" function="internal">
        <lane id=":10548612675_0_0" index="0" allow="pedestrian delivery bicycle" speed="5.09" length="4.94" shape="3312.19,4538.12 3311.54,4536.94 3310.67,4536.23 3309.57,4536.00 3308.24,4536.23"/>
    </edge>
    <edge id=":10548612675_1" function="internal">
        <lane id=":10548612675_1_0" index="0" allow="pedestrian delivery bicycle" speed="7.10" length="9.70" shape="3312.19,4538.12 3311.58,4535.52 3311.84,4533.27 3312.98,4531.37 3314.99,4529.81"/>
    </edge>
    <edge id=":10548612675_2" function="internal">
        <lane id=":10548612675_2_0" index="0" allow="pedestrian delivery bicycle" speed="3.65" length="4.67" shape="3312.19,4538.12 3312.52,4536.72 3313.12,4536.06 3314.01,4536.15 3315.19,4536.99"/>
    </edge>
    <edge id=":10548612675_3" function="internal">
        <lane id=":10548612675_3_0" index="0" allow="pedestrian delivery bicycle" speed="5.34" length="5.08" shape="3316.56,4532.60 3315.54,4533.40 3314.97,4534.40 3314.85,4535.60 3315.19,4536.99"/>
    </edge>
    <edge id=":10548612675_4" function="internal">
        <lane id=":10548612675_4_0" index="0" disallow="tram rail_urban rail rail_electric rail_fast ship container cable_car subway aircraft wheelchair scooter drone" speed="27.78" length="9.10" shape="3316.56,4532.60 3314.20,4533.91 3312.54,4534.72 3310.81,4535.38 3308.24,4536.23"/>
    </edge>
    <edge id=":10548612675_5" function="internal">
        <lane id=":10548612675_5_0" index="0" disallow="tram rail_urban rail rail_electric rail_fast ship container cable_car subway aircraft wheelchair scooter drone" speed="27.78" length="8.47" shape="3307.25,4533.19 3309.63,4532.40 3311.24,4531.79 3312.79,4531.03 3314.99,4529.81"/>
    </edge>
    <edge id=":10548612675_6" function="internal">
        <lane id=":10548612675_6_0" index="0" allow="pedestrian delivery bicycle" speed="6.90" length="3.19" shape="3307.25,4533.19 3309.91,4532.72 3310.38,4532.82"/>
    </edge>
    <edge id=":10548612675_7" function="internal">
        <lane id=":10548612675_7_0" index="0" allow="pedestrian delivery bicycle" speed="6.90" length="6.75" shape="3310.38,4532.82 3312.12,4533.19 3313.88,4534.62 3315.19,4536.99"/>
    </edge>
    <edge id=":10548612680_0" function="internal">
        <lane id=":10548612680_0_0" index="0" allow="pedestrian delivery bicycle" speed="3.65" length="4.67" shape="3402.04,4611.88 3402.69,4613.16 3402.64,4614.06 3401.90,4614.55 3400.46,4614.66"/>
    </edge>
    <edge id=":10548906599_0" function="internal">
        <lane id=":10548906599_0_0" index="0" disallow="tram rail_urban rail rail_electric rail_fast ship container cable_car subway aircraft wheelchair scooter drone" speed="3.65" length="4.67" shape="4203.71,5366.96 4203.73,5368.40 4203.30,5369.18 4202.41,5369.31 4201.07,5368.77"/>
    </edge>
    <edge id=":10893904644_0" function="internal">
        <lane id=":10893904644_0_0" index="0" disallow="tram rail_urban rail rail_electric rail_fast ship container cable_car subway aircraft wheelchair scooter drone" speed="10.50" length="10.73" shape="3380.65,4530.63 3378.62,4528.61 3377.18,4527.08 3375.52,4526.15 3372.87,4525.91"/>
        <lane id=":10893904644_0_1" index="1" disallow="tram rail_urban rail rail_electric rail_fast ship container cable_car subway aircraft wheelchair scooter drone" speed="11.70" length="10.73" shape="3382.75,4528.21 3380.16,4525.74 3378.26,4523.97 3376.10,4522.94 3372.74,4522.71"/>
    </edge>
    <edge id=":10893904644_2" function="internal">
        <lane id=":10893904644_2_0" index="0" disallow="tram rail_urban rail rail_electric rail_fast ship container cable_car subway aircraft wheelchair scooter drone" speed="27.78" length="11.42" shape="3384.01,4523.76 3380.81,4524.86 3378.56,4525.45 3376.25,4525.74 3372.87,4525.91"/>
        <lane id=":10893904644_2_1" index="1" disallow="tram rail_urban rail rail_electric rail_fast ship container cable_car subway aircraft wheelchair scooter drone" speed="27.78" length="11.42" shape="3383.84,4520.43 3380.65,4521.55 3378.41,4522.19 3376.11,4522.52 3372.74,4522.71"/>
    </edge>
    <edge id=":1204213791_0" function="internal">
        <lane id=":1204213791_0_0" index="0" disallow="tram rail_urban rail rail_electric rail_fast ship container cable_car subway aircraft wheelchair scooter drone" speed="3.65" length="4.67" shape="2591.15,4387.06 2589.88,4386.38 2589.40,4385.63 2589.72,4384.79 2590.84,4383.88"/>
    </edge>
    <edge id=":1261902546_0" function="internal">
        <lane id=":1261902546_0_0" index="0" disallow="tram rail_urban rail rail_electric rail_fast ship container cable_car subway aircraft wheelchair scooter drone" speed="11.51" length="9.71" shape="3364.61,4465.64 3367.14,4464.60 3368.51,4463.22 3369.55,4461.37 3371.07,4458.89"/>
        <lane id=":1261902546_0_1" index="1" disallow="tram rail_urban rail rail_electric rail_fast ship container cable_car subway aircraft wheelchair scooter drone" speed="12.04" length="10.66" shape="3364.61,4465.64 3367.70,4464.89 3369.87,4464.26 3371.68,4463.09 3373.67,4460.76"/>
    </edge>
    <edge id=":1261902546_2" function="internal">
        <lane id=":1261902546_2_0" index="0" disallow="tram rail_urban rail rail_electric rail_fast ship container cable_car subway aircraft wheelchair scooter drone" speed="18.32" length="10.92" shape="3364.61,4465.64 3367.83,4464.73 3370.10,4464.23 3372.39,4464.19 3375.67,4464.66"/>
        <lane id=":1261902546_2_1" index="1" disallow="tram rail_urban rail rail_electric rail_fast ship container cable_car subway aircraft wheelchair scooter drone" speed="17.75" length="10.92" shape="3365.46,4468.73 3368.48,4467.89 3370.61,4467.47 3372.77,4467.48 3375.84,4467.95"/>
    </edge>
    <edge id=":1261902550_0" function="internal">
        <lane id=":1261902550_0_0" index="0" disallow="tram rail_urban rail rail_electric rail_fast ship container cable_car subway aircraft wheelchair scooter drone" speed="27.78" length="7.34" shape="3345.21,4508.87 3344.20,4506.78 3343.53,4505.33 3343.06,4503.82 3342.65,4501.56"/>
        <lane id=":1261902550_0_1" index="1" disallow="tram rail_urban rail rail_electric rail_fast ship container cable_car subway aircraft wheelchair scooter drone" speed="27.78" length="7.34" shape="3348.11,4507.53 3347.22,4505.69 3346.61,4504.41 3346.18,4503.08 3345.81,4501.09"/>
    </edge>
    <edge id=":1261902550_2" function="internal">
        <lane id=":1261902550_2_0" index="0" disallow="tram rail_urban rail rail_electric rail_fast ship container cable_car subway aircraft wheelchair scooter drone" speed="8.06" length="7.14" shape="3340.43,4508.08 3341.60,4506.58 3342.36,4505.00 3342.71,4503.32 3342.65,4501.56"/>
    </edge>
    <edge id=":1261902562_0" function="internal">
        <lane id=":1261902562_0_0" index="0" disallow="tram rail_urban rail rail_electric rail_fast ship container cable_car subway aircraft wheelchair scooter drone" speed="27.78" length="5.78" shape="3330.55,4525.09 3328.94,4525.65 3327.88,4526.15 3326.86,4526.75 3325.38,4527.62"/>
    </edge>
    <edge id=":1261902562_1" function="internal">
        <lane id=":1261902562_1_0" index="0" disallow="tram rail_urban rail rail_electric rail_fast ship container cable_car subway aircraft wheelchair scooter drone" speed="5.17" length="4.01" shape="3330.55,4525.09 3326.95,4525.99 3326.66,4525.97"/>
    </edge>
    <edge id=":1261902562_4" function="internal">
        <lane id=":1261902562_4_0" index="0" disallow="tram rail_urban rail rail_electric rail_fast ship container cable_car subway aircraft wheelchair scooter drone" speed="5.17" length="5.62" shape="3326.66,4525.97 3325.13,4525.83 3325.10,4524.62 3326.87,4522.35"/>
    </edge>
    <edge id=":1261902562_2" function="internal">
        <lane id=":1261902562_2_0" index="0" disallow="tram rail_urban rail rail_electric rail_fast ship container cable_car subway aircraft wheelchair scooter drone" speed="25.05" length="3.97" shape="3323.80,4524.83 3324.82,4524.24 3325.47,4523.77 3326.06,4523.21 3326.87,4522.35"/>
    </edge>
    <edge id=":1261902562_3" function="internal">
        <lane id=":1261902562_3_0" index="0" disallow="tram rail_urban rail rail_electric rail_fast ship container cable_car subway aircraft wheelchair scooter drone" speed="3.65" length="1.44" shape="3323.80,4524.83 3325.24,4524.94"/>
    </edge>
    <edge id=":1261902562_5" function="internal">
        <lane id=":1261902562_5_0" index="0" disallow="tram rail_urban rail rail_electric rail_fast ship container cable_car subway aircraft wheelchair scooter drone" speed="3.65" length="3.23" shape="3325.24,4524.94 3325.98,4525.44 3326.03,4526.33 3325.38,4527.62"/>
    </edge>
    <edge id=":1603903897_0" function="internal">
        <lane id=":1603903897_0_0" index="0" disallow="tram rail_urban rail rail_electric rail_fast ship container cable_car subway aircraft wheelchair scooter drone" speed="3.65" length="4.67" shape="-1.46,0.65 -1.22,-0.77 -0.65,-1.46 0.24,-1.42 1.46,-0.65"/>
    </edge>
    <edge id=":1640106390_0" function="internal">
        <lane id=":1640106390_0_0" index="0" disallow="tram rail_urban rail rail_electric rail_fast ship container cable_car subway aircraft wheelchair scooter drone" speed="10.06" length="9.03" shape="3388.36,4462.59 3388.59,4465.29 3388.73,4467.28 3389.39,4468.95 3391.19,4470.72"/>
        <lane id=":1640106390_0_1" index="1" disallow="tram rail_urban rail rail_electric rail_fast ship container cable_car subway aircraft wheelchair scooter drone" speed="11.30" length="11.51" shape="3385.20,4463.06 3385.56,4466.48 3385.89,4468.96 3386.89,4471.04 3389.27,4473.27"/>
    </edge>
    <edge id=":1640106390_2" function="internal">
        <lane id=":1640106390_2_0" index="0" disallow="tram rail_urban rail rail_electric rail_fast ship container cable_car subway aircraft wheelchair scooter drone" speed="17.26" length="10.53" shape="3381.69,4465.76 3384.80,4466.49 3386.82,4467.39 3388.65,4468.72 3391.19,4470.72"/>
        <lane id=":1640106390_2_1" index="1" disallow="tram rail_urban rail rail_electric rail_fast ship container cable_car subway aircraft wheelchair scooter drone" speed="16.67" length="10.53" shape="3380.35,4468.77 3383.26,4469.43 3385.16,4470.23 3386.88,4471.43 3389.27,4473.27"/>
    </edge>
    <edge id=":1640106394_0" function="internal">
        <lane id=":1640106394_0_0" index="0" disallow="tram rail_urban rail rail_electric rail_fast ship container cable_car subway aircraft wheelchair scooter drone" speed="16.67" length="8.27" shape="3412.99,4578.52 3411.49,4576.58 3409.84,4575.73 3408.17,4574.90 3406.58,4573.01"/>
        <lane id=":1640106394_0_1" index="1" disallow="tram rail_urban rail rail_electric rail_fast ship container cable_car subway aircraft wheelchair scooter drone" speed="16.67" length="8.27" shape="3412.99,4578.52 3409.40,4571.49"/>
    </edge>
    <edge id=":1640106394_2" function="internal">
        <lane id=":1640106394_2_0" index="0" disallow="tram rail_urban rail rail_electric rail_fast ship container cable_car subway aircraft wheelchair scooter drone" speed="16.67" length="8.97" shape="3415.19,4568.36 3415.82,4570.85 3415.52,4572.75 3415.22,4574.64 3415.87,4577.12"/>
    </edge>
    <edge id=":2349320892_0" function="internal">
        <lane id=":2349320892_0_0" index="0" disallow="tram rail_urban rail rail_electric rail_fast ship container cable_car subway aircraft wheelchair scooter drone" speed="3.65" length="4.67" shape="1117.87,2771.91 1116.82,2770.93 1116.55,2770.07 1117.08,2769.35 1118.39,2768.75"/>
    </edge>
    <edge id=":272078803_0" function="internal">
        <lane id=":272078803_0_0" index="0" disallow="tram rail_urban rail rail_electric rail_fast ship container cable_car subway aircraft wheelchair scooter drone" speed="27.78" length="14.61" shape="3387.53,4433.03 3388.20,4437.16 3387.72,4440.06 3386.85,4443.02 3386.34,4447.30"/>
        <lane id=":272078803_0_1" index="1" disallow="tram rail_urban rail rail_electric rail_fast ship container cable_car subway aircraft wheelchair scooter drone" speed="27.78" length="14.61" shape="3384.46,4433.93 3385.12,4438.10 3384.59,4441.04 3383.66,4444.03 3383.13,4448.36"/>
    </edge>
    <edge id=":272078803_2" function="internal">
        <lane id=":272078803_2_0" index="0" disallow="tram rail_urban rail rail_electric rail_fast ship container cable_car subway aircraft wheelchair scooter drone" speed="3.65" length="1.44" shape="3384.46,4433.93 3384.03,4435.31"/>
    </edge>
    <edge id=":272078803_6" function="internal">
        <lane id=":272078803_6_0" index="0" disallow="tram rail_urban rail rail_electric rail_fast ship container cable_car subway aircraft wheelchair scooter drone" speed="3.65" length="3.23" shape="3384.03,4435.31 3383.37,4435.91 3382.49,4435.75 3381.39,4434.82"/>
    </edge>
    <edge id=":272078803_3" function="internal">
        <lane id=":272078803_3_0" index="0" disallow="tram rail_urban rail rail_electric rail_fast ship container cable_car subway aircraft wheelchair scooter drone" speed="16.85" length="13.29" shape="3376.53,4447.79 3377.62,4444.21 3378.57,4441.72 3378.95,4439.24 3378.32,4435.72"/>
        <lane id=":272078803_3_1" index="1" disallow="tram rail_urban rail rail_electric rail_fast ship container cable_car subway aircraft wheelchair scooter drone" speed="17.89" length="13.29" shape="3379.65,4448.50 3380.84,4444.45 3381.81,4441.62 3382.15,4438.81 3381.39,4434.82"/>
    </edge>
    <edge id=":272078803_5" function="internal">
        <lane id=":272078803_5_0" index="0" disallow="tram rail_urban rail rail_electric rail_fast ship container cable_car subway aircraft wheelchair scooter drone" speed="6.23" length="7.55" shape="3379.65,4448.50 3381.24,4442.42 3381.85,4441.30"/>
    </edge>
    <edge id=":272078803_7" function="internal">
        <lane id=":272078803_7_0" index="0" disallow="tram rail_urban rail rail_electric rail_fast ship container cable_car subway aircraft wheelchair scooter drone" speed="6.23" length="9.15" shape="3381.85,4441.30 3382.36,4440.37 3382.99,4442.35 3383.13,4448.36"/>
    </edge>
    <edge id=":298982462_0" function="internal">
        <lane id=":298982462_0_0" index="0" disallow="pedestrian tram rail_urban rail rail_electric rail_fast ship container cable_car subway aircraft wheelchair scooter drone" speed="23.56" length="12.85" shape="3409.53,4499.28 3406.65,4501.52 3404.53,4502.97 3402.76,4504.68 3400.90,4507.71"/>
        <lane id=":298982462_0_1" index="1" disallow="pedestrian tram rail_urban rail rail_electric rail_fast ship container cable_car subway aircraft wheelchair scooter drone" speed="24.71" length="12.85" shape="3407.43,4496.87 3404.28,4499.35 3401.98,4500.99 3400.07,4502.91 3398.04,4506.27"/>
    </edge>
    <edge id=":298982462_2" function="internal">
        <lane id=":298982462_2_0" index="0" disallow="tram rail_urban rail rail_electric rail_fast ship container cable_car subway aircraft wheelchair scooter drone" speed="27.78" length="11.71" shape="3403.75,4495.98 3403.22,4499.55 3402.93,4502.04 3402.34,4504.43 3400.90,4507.71"/>
        <lane id=":298982462_2_1" index="1" disallow="tram rail_urban rail rail_electric rail_fast ship container cable_car subway aircraft wheelchair scooter drone" speed="27.78" length="11.71" shape="3400.60,4495.39 3400.13,4498.71 3399.88,4501.02 3399.36,4503.24 3398.04,4506.27"/>
    </edge>
    <edge id=":298982497_0" function="internal">
        <lane id=":298982497_0_0" index="0" disallow="pedestrian tram rail_urban rail rail_electric rail_fast ship container cable_car subway aircraft wheelchair scooter drone" speed="10.67" length="8.99" shape="3396.43,4475.67 3398.29,4477.37 3399.99,4477.97 3401.95,4478.07 3404.64,4478.29"/>
        <lane id=":298982497_0_1" index="1" disallow="pedestrian tram rail_urban rail rail_electric rail_fast ship container cable_car subway aircraft wheelchair scooter drone" speed="11.26" length="10.05" shape="3396.43,4475.67 3398.29,4478.02 3399.68,4479.67 3401.39,4480.76 3404.17,4481.45"/>
    </edge>
    <edge id=":298982497_2" function="internal">
        <lane id=":298982497_2_0" index="0" disallow="tram rail_urban rail rail_electric rail_fast ship container cable_car subway aircraft wheelchair scooter drone" speed="27.78" length="10.21" shape="3396.43,4475.67 3398.37,4478.13 3399.47,4479.98 3400.36,4481.97 3401.65,4484.85"/>
        <lane id=":298982497_2_1" index="1" disallow="tram rail_urban rail rail_electric rail_fast ship container cable_car subway aircraft wheelchair scooter drone" speed="27.78" length="10.21" shape="3394.00,4477.75 3395.78,4480.02 3396.78,4481.73 3397.58,4483.58 3398.76,4486.23"/>
    </edge>
    <edge id=":298984572_0" function="internal">
        <lane id=":298984572_0_0" index="0" disallow="tram rail_urban rail rail_electric rail_fast ship container cable_car subway aircraft wheelchair scooter drone" speed="11.37" length="9.31" shape="3342.53,4489.71 3342.58,4487.08 3341.90,4485.35 3340.69,4483.72 3339.10,4481.43"/>
        <lane id=":298984572_0_1" index="1" disallow="tram rail_urban rail rail_electric rail_fast ship container cable_car subway aircraft wheelchair scooter drone" speed="11.94" length="10.30" shape="3342.53,4489.71 3343.07,4486.68 3343.40,4484.51 3343.13,4482.45 3341.85,4479.79"/>
    </edge>
    <edge id=":298984572_2" function="internal">
        <lane id=":298984572_2_0" index="0" disallow="tram rail_urban rail rail_electric rail_fast ship container cable_car subway aircraft wheelchair scooter drone" speed="15.59" length="10.56" shape="3342.53,4489.71 3342.95,4486.47 3343.38,4484.24 3344.29,4482.20 3346.13,4479.55"/>
        <lane id=":298984572_2_1" index="1" disallow="tram rail_urban rail rail_electric rail_fast ship container cable_car subway aircraft wheelchair scooter drone" speed="14.96" length="10.56" shape="3345.71,4490.14 3346.11,4487.17 3346.56,4485.13 3347.45,4483.28 3349.16,4480.85"/>
    </edge>
    <edge id=":298984573_0" function="internal">
        <lane id=":298984573_0_0" index="0" disallow="tram rail_urban rail rail_electric rail_fast ship container cable_car subway aircraft wheelchair scooter drone" speed="9.23" length="10.31" shape="3348.08,4468.47 3350.93,4469.38 3353.37,4469.80 3355.37,4469.74 3356.95,4469.19"/>
        <lane id=":298984573_0_1" index="1" disallow="tram rail_urban rail rail_electric rail_fast ship container cable_car subway aircraft wheelchair scooter drone" speed="10.29" length="10.31" shape="3347.43,4471.65 3350.78,4472.66 3353.75,4473.05 3356.34,4472.82 3358.55,4471.96"/>
    </edge>
    <edge id=":298984573_2" function="internal">
        <lane id=":298984573_2_0" index="0" disallow="tram rail_urban rail rail_electric rail_fast ship container cable_car subway aircraft wheelchair scooter drone" speed="21.48" length="10.80" shape="3348.64,4476.26 3350.67,4473.71 3352.26,4472.13 3354.12,4470.84 3356.95,4469.19"/>
        <lane id=":298984573_2_1" index="1" disallow="tram rail_urban rail rail_electric rail_fast ship container cable_car subway aircraft wheelchair scooter drone" speed="21.02" length="10.80" shape="3350.70,4478.84 3352.62,4476.38 3354.12,4474.82 3355.86,4473.56 3358.55,4471.96"/>
    </edge>
    <edge id=":8364768961_0" function="internal">
        <lane id=":8364768961_0_0" index="0" disallow="tram rail_urban rail rail_electric rail_fast ship container cable_car subway aircraft wheelchair scooter drone" speed="8.37" length="8.21" shape="3396.09,4515.26 3395.36,4516.57 3395.03,4518.33 3395.11,4520.54 3395.61,4523.20"/>
        <lane id=":8364768961_0_1" index="1" disallow="tram rail_urban rail rail_electric rail_fast ship container cable_car subway aircraft wheelchair scooter drone" speed="9.07" length="9.73" shape="3396.09,4515.26 3394.20,4517.74 3392.97,4520.01 3392.40,4522.08 3392.50,4523.95"/>
    </edge>
    <edge id=":8364768961_2" function="internal">
        <lane id=":8364768961_2_0" index="0" disallow="tram rail_urban rail rail_electric rail_fast ship container cable_car subway aircraft wheelchair scooter drone" speed="27.78" length="10.43" shape="3396.09,4515.26 3393.94,4517.63 3392.31,4519.10 3390.51,4520.39 3387.86,4522.20"/>
        <lane id=":8364768961_2_1" index="1" disallow="tram rail_urban rail rail_electric rail_fast ship container cable_car subway aircraft wheelchair scooter drone" speed="27.78" length="10.43" shape="3393.67,4513.17 3391.67,4515.36 3390.15,4516.72 3388.48,4517.90 3386.02,4519.59"/>
    </edge>
    <edge id=":8364768962_0" function="internal">
        <lane id=":8364768962_0_0" index="0" disallow="tram rail_urban rail rail_electric rail_fast ship container cable_car subway aircraft wheelchair scooter drone" speed="8.39" length="7.14" shape="3354.94,4520.29 3353.33,4519.52 3351.64,4519.14 3349.88,4519.15 3348.05,4519.55"/>
    </edge>
    <edge id=":8364768962_1" function="internal">
        <lane id=":8364768962_1_0" index="0" disallow="tram rail_urban rail rail_electric rail_fast ship container cable_car subway aircraft wheelchair scooter drone" speed="27.78" length="7.28" shape="3354.94,4520.29 3353.03,4519.03 3351.84,4517.99 3350.80,4516.80 3349.30,4515.04"/>
        <lane id=":8364768962_1_1" index="1" disallow="tram rail_urban rail rail_electric rail_fast ship container cable_car subway aircraft wheelchair scooter drone" speed="27.78" length="7.28" shape="3356.61,4517.57 3354.94,4516.45 3353.91,4515.53 3353.01,4514.47 3351.70,4512.92"/>
    </edge>
    <edge id=":8364768968_0" function="internal">
        <lane id=":8364768968_0_0" index="0" disallow="tram rail_urban rail rail_electric rail_fast ship container cable_car subway aircraft wheelchair scooter drone" speed="27.78" length="0.53" shape="3403.62,4495.37 3403.79,4495.78"/>
        <lane id=":8364768968_0_1" index="1" disallow="tram rail_urban rail rail_electric rail_fast ship container cable_car subway aircraft wheelchair scooter drone" speed="27.78" length="0.53" shape="3400.45,4495.79 3400.64,4495.19"/>
    </edge>
    <edge id=":886246750_0" function="internal">
        <lane id=":886246750_0_0" index="0" disallow="tram rail_urban rail rail_electric rail_fast ship container cable_car subway aircraft wheelchair scooter drone" speed="25.00" length="5.18" shape="3323.23,4463.70 3322.57,4462.42 3321.94,4461.64 3321.26,4460.89 3320.39,4459.71"/>
        <lane id=":886246750_0_1" index="1" disallow="tram rail_urban rail rail_electric rail_fast ship container cable_car subway aircraft wheelchair scooter drone" speed="25.00" length="5.18" shape="3326.17,4462.43 3325.44,4461.01 3324.78,4460.13 3324.03,4459.29 3323.09,4457.99"/>
    </edge>
    <edge id=":886246750_2" function="internal">
        <lane id=":886246750_2_0" index="0" disallow="tram rail_urban rail rail_electric rail_fast ship container cable_car subway aircraft wheelchair scooter drone" speed="5.27" length="2.96" shape="3326.17,4462.43 3325.17,4459.64"/>
    </edge>
    <edge id=":886246750_6" function="internal">
        <lane id=":886246750_6_0" index="0" disallow="tram rail_urban rail rail_electric rail_fast ship container cable_car subway aircraft wheelchair scooter drone" speed="5.27" length="7.72" shape="3325.17,4459.64 3324.88,4458.86 3324.96,4457.32 3326.42,4457.83 3329.24,4460.37"/>
    </edge>
    <edge id=":886246750_3" function="internal">
        <lane id=":886246750_3_0" index="0" disallow="tram rail_urban rail rail_electric rail_fast ship container cable_car subway aircraft wheelchair scooter drone" speed="25.00" length="5.05" shape="3328.49,4454.55 3329.26,4455.71 3329.86,4456.45 3330.53,4457.14 3331.52,4458.13"/>
        <lane id=":886246750_3_1" index="1" disallow="tram rail_urban rail rail_electric rail_fast ship container cable_car subway aircraft wheelchair scooter drone" speed="25.00" length="5.05" shape="3325.79,4456.27 3326.67,4457.60 3327.35,4458.45 3328.11,4459.24 3329.24,4460.37"/>
    </edge>
    <edge id=":886246750_5" function="internal">
        <lane id=":886246750_5_0" index="0" disallow="tram rail_urban rail rail_electric rail_fast ship container cable_car subway aircraft wheelchair scooter drone" speed="3.65" length="1.44" shape="3325.79,4456.27 3325.76,4457.71"/>
    </edge>
    <edge id=":886246750_7" function="internal">
        <lane id=":886246750_7_0" index="0" disallow="tram rail_urban rail rail_electric rail_fast ship container cable_car subway aircraft wheelchair scooter drone" speed="3.65" length="3.23" shape="3325.76,4457.71 3325.30,4458.48 3324.41,4458.57 3323.09,4457.99"/>
    </edge>

    <edge id="-1131549280" from="10548612680" to="10548612675" priority="1" type="highway.service" shape="3401.25,4613.27 3313.65,4563.42 3315.01,4557.16 3315.93,4548.14 3314.64,4540.06 3312.07,4533.30">
        <lane id="-1131549280_0" index="0" allow="pedestrian delivery bicycle" speed="5.56" length="128.55" shape="3400.46,4614.66 3311.84,4564.23 3313.43,4556.90 3314.32,4548.18 3313.09,4540.47 3312.19,4538.12"/>
    </edge>
    <edge id="-191467598" from="272078803" to="1603903897" priority="12" type="highway.primary" shape="3381.97,4431.09 3378.79,4420.20 3373.74,4408.92 3361.22,4392.32 3343.93,4378.66 3317.41,4364.59 3306.42,4357.84 3288.44,4344.37 3279.08,4334.26 3269.67,4323.77 3266.83,4320.61 3212.95,4241.16 3135.25,4125.94 3115.47,4099.70 3087.78,4064.87 3058.82,4028.70 3030.36,3997.36 2987.74,3952.25 2933.89,3898.67 2883.69,3846.95 2876.93,3839.99 2806.14,3767.35 2735.98,3698.33 2687.24,3650.49 2666.33,3628.78 2641.64,3601.30 2612.85,3565.12 2593.27,3539.74 2579.63,3520.94 2561.44,3495.33 2535.54,3462.53 2506.28,3427.92 2463.16,3378.50 2428.83,3337.65 2415.80,3321.42 2392.21,3290.44 2358.33,3236.22 2327.50,3185.20 2322.89,3177.16 2298.23,3134.15 2274.68,3093.09 2234.98,3025.70 2199.83,2964.59 2158.68,2894.81 2119.14,2827.42 2087.18,2773.49 2067.89,2740.98 2044.09,2703.43 2017.57,2662.14 1929.25,2536.83 1882.81,2470.86 1846.74,2419.14 1807.42,2363.87 1769.88,2309.76 1761.02,2297.07 1757.93,2292.65 1746.56,2276.35 1711.04,2225.98 1658.08,2151.73 1611.73,2085.87 1505.49,1936.56 1402.03,1789.53 1379.64,1758.40 1339.25,1702.24 1305.01,1653.91 1263.14,1595.43 1222.55,1538.80 1180.65,1479.10 1142.56,1424.66 1101.77,1367.53 1069.73,1322.59 1031.85,1269.35 1008.15,1235.08 980.84,1197.11 974.55,1188.35 959.92,1167.95 932.62,1130.15 894.89,1076.39 866.38,1038.62 838.49,1004.15 803.05,961.74 758.12,911.50 718.32,868.56 667.87,814.95 643.57,789.13 589.03,731.18 515.20,652.90 447.56,582.92 390.32,523.01 361.18,492.91 311.26,438.83 265.54,390.87 250.56,374.18 228.84,347.47 204.10,313.75 82.15,145.61 43.45,89.09 31.68,69.18 19.92,44.58 0.00,0.00">
        <lane id="-191467598_0" index="0" disallow="tram rail_urban rail rail_electric rail_fast ship container cable_car subway aircraft wheelchair scooter drone" speed="27.78" length="5601.52" shape="3378.32,4435.72 3374.27,4421.86 3369.58,4411.38 3357.76,4395.71 3341.30,4382.70 3315.03,4368.76 3303.72,4361.82 3285.21,4347.95 3275.54,4337.49 3266.09,4326.97 3263.04,4323.57 3208.97,4243.85 3131.34,4128.72 3111.68,4102.64 3084.03,4067.86 3055.17,4031.81 3026.84,4000.62 2984.30,3955.60 2930.48,3902.05 2880.24,3850.29 2873.49,3843.33 2802.74,3770.74 2732.62,3701.76 2683.83,3653.87 2662.81,3632.05 2637.97,3604.40 2609.07,3568.08 2589.43,3542.61 2575.73,3523.73 2557.60,3498.21 2531.82,3465.57 2502.64,3431.05 2459.51,3381.62 2425.12,3340.69 2412.01,3324.37 2388.26,3293.18 2354.24,3238.74 2323.36,3187.64 2318.72,3179.55 2294.07,3136.54 2270.53,3095.50 2230.83,3028.11 2195.69,2967.01 2154.54,2897.25 2115.01,2829.86 2083.05,2775.94 2063.79,2743.49 2040.04,2706.01 2013.59,2664.82 1925.32,2539.60 1878.88,2473.62 1842.81,2421.91 1803.49,2366.63 1765.94,2312.50 1757.08,2299.82 1754.00,2295.40 1742.63,2279.10 1707.13,2228.75 1654.16,2154.50 1607.81,2088.64 1501.57,1939.34 1398.12,1792.31 1375.74,1761.20 1335.34,1705.02 1301.10,1656.69 1259.24,1598.23 1218.64,1541.58 1176.72,1481.86 1138.64,1427.43 1097.87,1370.31 1065.82,1325.37 1027.92,1272.11 1004.23,1237.85 976.95,1199.92 970.65,1191.15 956.02,1170.76 928.70,1132.94 891.01,1079.21 862.60,1041.58 834.78,1007.19 799.41,964.88 754.57,914.73 714.81,871.84 664.38,818.24 640.08,792.42 585.53,734.47 511.73,656.22 444.10,586.24 386.86,526.34 357.69,496.20 307.76,442.12 262.01,394.13 246.91,377.30 225.04,350.41 200.22,316.58 78.22,148.37 39.40,91.67 27.44,71.44 15.57,46.59 -4.38,1.96"/>