<?xml version="1.0" encoding="UTF-8"?>

<!-- generated on 2024-09-03 01:38:48.459347 by randomTrips.py UNKNOWN
<configuration>
    <net-file value="train_files/intersection/hard/outputs/map(82)_dict/map(82)/map(82).net.xml"/>
    <output-trip-file value="train_files/intersection/hard/outputs/map(82)_dict/map(82)/map(82).trips.xml"/>
    <fringe-factor value="max"/>
    <validate value="True"/>
    <period value="0.72"/>
</configuration>
-->

<!-- generated on 2024-09-03 01:38:48 by Eclipse SUMO duarouter Version 1.20.0
<configuration xmlns:xsi="http://www.w3.org/2001/XMLSchema-instance" xsi:noNamespaceSchemaLocation="http://sumo.dlr.de/xsd/duarouterConfiguration.xsd">

    <input>
        <net-file value="train_files/intersection/hard/outputs/map(82)_dict/map(82)/map(82).net.xml"/>
        <route-files value="train_files/intersection/hard/outputs/map(82)_dict/map(82)/map(82).trips.xml"/>
    </input>

    <output>
        <output-file value="train_files/intersection/hard/outputs/map(82)_dict/map(82)/map(82).trips.xml.tmp"/>
        <alternatives-output value="NUL"/>
        <write-trips value="true"/>
    </output>

    <time>
        <begin value="0"/>
        <end value="3600"/>
    </time>

    <report>
        <no-warnings value="true"/>
        <ignore-errors value="true"/>
        <no-step-log value="true"/>
    </report>

</configuration>
-->

<routes xmlns:xsi="http://www.w3.org/2001/XMLSchema-instance" xsi:noNamespaceSchemaLocation="http://sumo.dlr.de/xsd/routes_file.xsd">
    <trip id="0" depart="0.00" from="253335412" to="-253335412"/>
    <trip id="1" depart="0.72" from="-603708716" to="-28444031"/>
    <trip id="2" depart="1.44" from="28444031" to="603708716"/>
    <trip id="3" depart="2.16" from="568424672" to="-253335412"/>
    <trip id="4" depart="2.88" from="-8099278#1" to="-253335412"/>
    <trip id="7" depart="5.04" from="253335412" to="568424675"/>
    <trip id="10" depart="7.20" from="28444031" to="603708716"/>
    <trip id="11" depart="7.92" from="-8099278#1" to="-253335412"/>
    <trip id="12" depart="8.64" from="568424672" to="-568424672"/>
    <trip id="13" depart="9.36" from="-568424675" to="-253335412"/>
    <trip id="14" depart="10.08" from="568424672" to="568424675"/>
    <trip id="15" depart="10.80" from="28444031" to="603708716"/>
    <trip id="16" depart="11.52" from="253335412" to="8099278#1"/>
    <trip id="17" depart="12.24" from="-8099278#1" to="568424675"/>
    <trip id="19" depart="13.68" from="568424672" to="568424675"/>
    <trip id="21" depart="15.12" from="-603708716" to="-28444031"/>
    <trip id="24" depart="17.28" from="253335412" to="-568424672"/>
    <trip id="27" depart="19.44" from="253335412" to="568424675"/>
    <trip id="28" depart="20.16" from="-603708716" to="603708716"/>
    <trip id="29" depart="20.88" from="-568424675" to="-568424672"/>
    <trip id="30" depart="21.60" from="568424672" to="568424675"/>
    <trip id="34" depart="24.48" from="-603708716" to="-28444031"/>
    <trip id="37" depart="26.64" from="253335412" to="-568424672"/>
    <trip id="38" depart="27.36" from="568424672" to="-568424672"/>
    <trip id="39" depart="28.08" from="-603708716" to="-28444031"/>
    <trip id="41" depart="29.52" from="253335412" to="8099278#1"/>
    <trip id="43" depart="30.96" from="568424672" to="568424675"/>
    <trip id="44" depart="31.68" from="-568424675" to="-253335412"/>
    <trip id="45" depart="32.40" from="-568424675" to="568424675"/>
    <trip id="47" depart="33.84" from="-568424675" to="-568424672"/>
    <trip id="48" depart="34.56" from="568424672" to="568424675"/>
    <trip id="49" depart="35.28" from="568424672" to="8099278#1"/>
    <trip id="53" depart="38.16" from="-568424675" to="-568424672"/>
    <trip id="54" depart="38.88" from="-8099278#1" to="8099278#1"/>
    <trip id="57" depart="41.04" from="568424672" to="8099278#1"/>
    <trip id="59" depart="42.48" from="253335412" to="-253335412"/>
    <trip id="63" depart="45.36" from="-568424675" to="8099278#1"/>
    <trip id="66" depart="47.52" from="568424672" to="8099278#1"/>
    <trip id="67" depart="48.24" from="-568424675" to="-568424672"/>
    <trip id="70" depart="50.40" from="-8099278#1" to="568424675"/>
    <trip id="74" depart="53.28" from="-603708716" to="-28444031"/>
    <trip id="75" depart="54.00" from="568424672" to="568424675"/>
    <trip id="76" depart="54.72" from="-8099278#1" to="568424675"/>
    <trip id="78" depart="56.16" from="-8099278#1" to="568424675"/>
    <trip id="79" depart="56.88" from="-603708716" to="-28444031"/>
    <trip id="80" depart="57.60" from="-568424675" to="568424675"/>
    <trip id="82" depart="59.04" from="568424672" to="-253335412"/>
    <trip id="83" depart="59.76" from="-603708716" to="603708716"/>
    <trip id="85" depart="61.20" from="568424672" to="568424675"/>
    <trip id="87" depart="62.64" from="28444031" to="-28444031"/>
    <trip id="88" depart="63.36" from="-568424675" to="-568424672"/>
    <trip id="89" depart="64.08" from="-8099278#1" to="-568424672"/>
    <trip id="90" depart="64.80" from="28444031" to="603708716"/>
    <trip id="91" depart="65.52" from="568424672" to="-253335412"/>
    <trip id="92" depart="66.24" from="-8099278#1" to="-568424672"/>
    <trip id="97" depart="69.84" from="-8099278#1" to="8099278#1"/>
    <trip id="98" depart="70.56" from="253335412" to="-253335412"/>
    <trip id="99" depart="71.28" from="568424672" to="8099278#1"/>
    <trip id="100" depart="72.00" from="568424672" to="8099278#1"/>
    <trip id="101" depart="72.72" from="568424672" to="-253335412"/>
    <trip id="103" depart="74.16" from="-8099278#1" to="-253335412"/>
    <trip id="104" depart="74.88" from="-8099278#1" to="8099278#1"/>
    <trip id="105" depart="75.60" from="-603708716" to="603708716"/>
    <trip id="106" depart="76.32" from="-8099278#1" to="-568424672"/>
    <trip id="107" depart="77.04" from="568424672" to="8099278#1"/>
    <trip id="110" depart="79.20" from="568424672" to="568424675"/>
    <trip id="112" depart="80.64" from="-568424675" to="568424675"/>
    <trip id="113" depart="81.36" from="253335412" to="8099278#1"/>
    <trip id="114" depart="82.08" from="-568424675" to="8099278#1"/>
    <trip id="119" depart="85.68" from="253335412" to="568424675"/>
    <trip id="120" depart="86.40" from="-8099278#1" to="568424675"/>
    <trip id="121" depart="87.12" from="253335412" to="8099278#1"/>
    <trip id="122" depart="87.84" from="-603708716" to="603708716"/>
    <trip id="124" depart="89.28" from="28444031" to="-28444031"/>
    <trip id="125" depart="90.00" from="-603708716" to="603708716"/>
    <trip id="126" depart="90.72" from="-568424675" to="-568424672"/>
    <trip id="127" depart="91.44" from="568424672" to="8099278#1"/>
    <trip id="130" depart="93.60" from="568424672" to="8099278#1"/>
    <trip id="131" depart="94.32" from="-8099278#1" to="-253335412"/>
    <trip id="133" depart="95.76" from="253335412" to="8099278#1"/>
    <trip id="134" depart="96.48" from="253335412" to="-253335412"/>
    <trip id="135" depart="97.20" from="28444031" to="-28444031"/>
    <trip id="136" depart="97.92" from="253335412" to="8099278#1"/>
    <trip id="137" depart="98.64" from="-568424675" to="-253335412"/>
    <trip id="138" depart="99.36" from="-568424675" to="568424675"/>
    <trip id="140" depart="100.80" from="28444031" to="-28444031"/>
    <trip id="142" depart="102.24" from="-8099278#1" to="8099278#1"/>
    <trip id="143" depart="102.96" from="568424672" to="-253335412"/>
    <trip id="148" depart="106.56" from="-8099278#1" to="-253335412"/>
    <trip id="149" depart="107.28" from="-568424675" to="8099278#1"/>
    <trip id="150" depart="108.00" from="568424672" to="568424675"/>
    <trip id="151" depart="108.72" from="568424672" to="568424675"/>
    <trip id="152" depart="109.44" from="-568424675" to="-253335412"/>
    <trip id="158" depart="113.76" from="-8099278#1" to="568424675"/>
    <trip id="159" depart="114.48" from="-568424675" to="8099278#1"/>
    <trip id="160" depart="115.20" from="568424672" to="8099278#1"/>
    <trip id="165" depart="118.80" from="28444031" to="-28444031"/>
    <trip id="167" depart="120.24" from="568424672" to="8099278#1"/>
    <trip id="168" depart="120.96" from="-603708716" to="603708716"/>
    <trip id="170" depart="122.40" from="28444031" to="-28444031"/>
    <trip id="174" depart="125.28" from="253335412" to="-568424672"/>
    <trip id="175" depart="126.00" from="568424672" to="568424675"/>
    <trip id="176" depart="126.72" from="568424672" to="-253335412"/>
    <trip id="179" depart="128.88" from="-568424675" to="-568424672"/>
    <trip id="180" depart="129.60" from="28444031" to="-28444031"/>
    <trip id="181" depart="130.32" from="253335412" to="568424675"/>
    <trip id="182" depart="131.04" from="-8099278#1" to="568424675"/>
    <trip id="183" depart="131.76" from="-603708716" to="603708716"/>
    <trip id="184" depart="132.48" from="-568424675" to="8099278#1"/>
    <trip id="186" depart="133.92" from="28444031" to="603708716"/>
    <trip id="187" depart="134.64" from="-8099278#1" to="-253335412"/>
    <trip id="190" depart="136.80" from="28444031" to="-28444031"/>
    <trip id="193" depart="138.96" from="-568424675" to="-568424672"/>
    <trip id="195" depart="140.40" from="568424672" to="568424675"/>
    <trip id="198" depart="142.56" from="-8099278#1" to="568424675"/>
    <trip id="199" depart="143.28" from="253335412" to="-568424672"/>
    <trip id="201" depart="144.72" from="-8099278#1" to="8099278#1"/>
    <trip id="202" depart="145.44" from="28444031" to="-28444031"/>
    <trip id="203" depart="146.16" from="-568424675" to="568424675"/>
    <trip id="204" depart="146.88" from="253335412" to="-568424672"/>
    <trip id="205" depart="147.60" from="28444031" to="603708716"/>
    <trip id="206" depart="148.32" from="28444031" to="-28444031"/>
    <trip id="209" depart="150.48" from="568424672" to="-253335412"/>
    <trip id="210" depart="151.20" from="-8099278#1" to="568424675"/>
    <trip id="211" depart="151.92" from="-603708716" to="603708716"/>
    <trip id="213" depart="153.36" from="253335412" to="-253335412"/>
    <trip id="214" depart="154.08" from="28444031" to="603708716"/>
    <trip id="215" depart="154.80" from="-568424675" to="-568424672"/>
    <trip id="217" depart="156.24" from="253335412" to="-253335412"/>
    <trip id="221" depart="159.12" from="253335412" to="8099278#1"/>
    <trip id="222" depart="159.84" from="568424672" to="568424675"/>
    <trip id="231" depart="166.32" from="-603708716" to="-28444031"/>
    <trip id="232" depart="167.04" from="253335412" to="-253335412"/>
    <trip id="233" depart="167.76" from="-603708716" to="603708716"/>
    <trip id="235" depart="169.20" from="-8099278#1" to="568424675"/>
    <trip id="237" depart="170.64" from="-8099278#1" to="8099278#1"/>
    <trip id="240" depart="172.80" from="-8099278#1" to="-253335412"/>
    <trip id="242" depart="174.24" from="568424672" to="8099278#1"/>
    <trip id="244" depart="175.68" from="253335412" to="568424675"/>
    <trip id="245" depart="176.40" from="-603708716" to="-28444031"/>
    <trip id="246" depart="177.12" from="-8099278#1" to="-253335412"/>
    <trip id="248" depart="178.56" from="-8099278#1" to="-253335412"/>
    <trip id="249" depart="179.28" from="-8099278#1" to="-253335412"/>
    <trip id="250" depart="180.00" from="253335412" to="-253335412"/>
    <trip id="251" depart="180.72" from="-8099278#1" to="568424675"/>
    <trip id="252" depart="181.44" from="-568424675" to="568424675"/>
    <trip id="253" depart="182.16" from="-568424675" to="-568424672"/>
    <trip id="254" depart="182.88" from="-568424675" to="-568424672"/>
    <trip id="255" depart="183.60" from="-603708716" to="-28444031"/>
    <trip id="257" depart="185.04" from="28444031" to="603708716"/>
    <trip id="259" depart="186.48" from="-568424675" to="568424675"/>
    <trip id="260" depart="187.20" from="568424672" to="-568424672"/>
    <trip id="264" depart="190.08" from="-568424675" to="-253335412"/>
    <trip id="267" depart="192.24" from="28444031" to="603708716"/>
    <trip id="271" depart="195.12" from="-568424675" to="-253335412"/>
    <trip id="272" depart="195.84" from="-603708716" to="603708716"/>
    <trip id="273" depart="196.56" from="568424672" to="-568424672"/>
    <trip id="277" depart="199.44" from="568424672" to="568424675"/>
    <trip id="278" depart="200.16" from="-568424675" to="8099278#1"/>
    <trip id="280" depart="201.60" from="-8099278#1" to="-568424672"/>
    <trip id="281" depart="202.32" from="253335412" to="-568424672"/>
    <trip id="283" depart="203.76" from="-568424675" to="8099278#1"/>
    <trip id="287" depart="206.64" from="-603708716" to="603708716"/>
    <trip id="288" depart="207.36" from="253335412" to="-568424672"/>
    <trip id="293" depart="210.96" from="-8099278#1" to="568424675"/>
    <trip id="294" depart="211.68" from="-8099278#1" to="-253335412"/>
    <trip id="296" depart="213.12" from="-603708716" to="603708716"/>
    <trip id="297" depart="213.84" from="-8099278#1" to="8099278#1"/>
    <trip id="298" depart="214.56" from="28444031" to="-28444031"/>
    <trip id="299" depart="215.28" from="-568424675" to="8099278#1"/>
    <trip id="305" depart="219.60" from="28444031" to="-28444031"/>
    <trip id="306" depart="220.32" from="253335412" to="-568424672"/>
    <trip id="307" depart="221.04" from="253335412" to="-568424672"/>
    <trip id="308" depart="221.76" from="28444031" to="-28444031"/>
    <trip id="309" depart="222.48" from="28444031" to="-28444031"/>
    <trip id="313" depart="225.36" from="-603708716" to="-28444031"/>
    <trip id="315" depart="226.80" from="568424672" to="568424675"/>
    <trip id="317" depart="228.24" from="-603708716" to="-28444031"/>
    <trip id="320" depart="230.40" from="568424672" to="568424675"/>
    <trip id="322" depart="231.84" from="568424672" to="-568424672"/>
    <trip id="323" depart="232.56" from="568424672" to="568424675"/>
    <trip id="324" depart="233.28" from="-8099278#1" to="-568424672"/>
    <trip id="326" depart="234.72" from="568424672" to="-568424672"/>
    <trip id="328" depart="236.16" from="-568424675" to="568424675"/>
    <trip id="329" depart="236.88" from="-568424675" to="-253335412"/>
    <trip id="331" depart="238.32" from="568424672" to="-253335412"/>
    <trip id="333" depart="239.76" from="28444031" to="-28444031"/>
    <trip id="334" depart="240.48" from="253335412" to="-568424672"/>
    <trip id="335" depart="241.20" from="-8099278#1" to="8099278#1"/>
    <trip id="337" depart="242.64" from="253335412" to="568424675"/>
    <trip id="339" depart="244.08" from="-603708716" to="-28444031"/>
    <trip id="340" depart="244.80" from="253335412" to="-253335412"/>
    <trip id="342" depart="246.24" from="-568424675" to="-568424672"/>
    <trip id="344" depart="247.68" from="-603708716" to="603708716"/>
    <trip id="348" depart="250.56" from="253335412" to="8099278#1"/>
    <trip id="349" depart="251.28" from="-8099278#1" to="568424675"/>
    <trip id="350" depart="252.00" from="253335412" to="8099278#1"/>
    <trip id="355" depart="255.60" from="28444031" to="603708716"/>
    <trip id="356" depart="256.32" from="568424672" to="568424675"/>
    <trip id="357" depart="257.04" from="-8099278#1" to="-253335412"/>
    <trip id="358" depart="257.76" from="-568424675" to="-568424672"/>
    <trip id="359" depart="258.48" from="-603708716" to="-28444031"/>
    <trip id="360" depart="259.20" from="-568424675" to="8099278#1"/>
    <trip id="361" depart="259.92" from="568424672" to="568424675"/>
    <trip id="362" depart="260.64" from="568424672" to="8099278#1"/>
    <trip id="363" depart="261.36" from="28444031" to="-28444031"/>
    <trip id="365" depart="262.80" from="-8099278#1" to="568424675"/>
    <trip id="367" depart="264.24" from="253335412" to="568424675"/>
    <trip id="368" depart="264.96" from="-8099278#1" to="-253335412"/>
    <trip id="371" depart="267.12" from="-603708716" to="603708716"/>
    <trip id="376" depart="270.72" from="-8099278#1" to="568424675"/>
    <trip id="377" depart="271.44" from="568424672" to="568424675"/>
    <trip id="378" depart="272.16" from="253335412" to="-568424672"/>
    <trip id="381" depart="274.32" from="28444031" to="-28444031"/>
    <trip id="382" depart="275.04" from="253335412" to="8099278#1"/>
    <trip id="384" depart="276.48" from="-568424675" to="8099278#1"/>
    <trip id="386" depart="277.92" from="-568424675" to="568424675"/>
    <trip id="387" depart="278.64" from="253335412" to="-253335412"/>
    <trip id="388" depart="279.36" from="568424672" to="8099278#1"/>
    <trip id="389" depart="280.08" from="-8099278#1" to="-253335412"/>
    <trip id="394" depart="283.68" from="253335412" to="-568424672"/>
    <trip id="395" depart="284.40" from="568424672" to="568424675"/>
    <trip id="396" depart="285.12" from="568424672" to="8099278#1"/>
    <trip id="397" depart="285.84" from="-603708716" to="603708716"/>
    <trip id="398" depart="286.56" from="-8099278#1" to="8099278#1"/>
    <trip id="400" depart="288.00" from="-603708716" to="-28444031"/>
    <trip id="401" depart="288.72" from="253335412" to="8099278#1"/>
    <trip id="402" depart="289.44" from="-8099278#1" to="-253335412"/>
    <trip id="403" depart="290.16" from="253335412" to="-568424672"/>
    <trip id="404" depart="290.88" from="253335412" to="568424675"/>
    <trip id="406" depart="292.32" from="-603708716" to="603708716"/>
    <trip id="409" depart="294.48" from="28444031" to="603708716"/>
    <trip id="412" depart="296.64" from="568424672" to="-568424672"/>
    <trip id="413" depart="297.36" from="-568424675" to="568424675"/>
    <trip id="414" depart="298.08" from="253335412" to="8099278#1"/>
    <trip id="415" depart="298.80" from="568424672" to="-568424672"/>
    <trip id="416" depart="299.52" from="253335412" to="-568424672"/>
    <trip id="418" depart="300.96" from="253335412" to="-253335412"/>
    <trip id="419" depart="301.68" from="-8099278#1" to="8099278#1"/>
    <trip id="421" depart="303.12" from="253335412" to="8099278#1"/>
    <trip id="422" depart="303.84" from="568424672" to="8099278#1"/>
    <trip id="424" depart="305.28" from="28444031" to="603708716"/>
    <trip id="425" depart="306.00" from="568424672" to="-253335412"/>
    <trip id="426" depart="306.72" from="-568424675" to="568424675"/>
    <trip id="427" depart="307.44" from="568424672" to="8099278#1"/>
    <trip id="429" depart="308.88" from="-568424675" to="568424675"/>
    <trip id="430" depart="309.60" from="568424672" to="-568424672"/>
    <trip id="434" depart="312.48" from="-568424675" to="568424675"/>
    <trip id="437" depart="314.64" from="568424672" to="568424675"/>
    <trip id="439" depart="316.08" from="-568424675" to="-568424672"/>
    <trip id="440" depart="316.80" from="-603708716" to="-28444031"/>
    <trip id="443" depart="318.96" from="-568424675" to="-568424672"/>
    <trip id="444" depart="319.68" from="-8099278#1" to="568424675"/>
    <trip id="445" depart="320.40" from="253335412" to="-568424672"/>
    <trip id="449" depart="323.28" from="253335412" to="568424675"/>
    <trip id="451" depart="324.72" from="568424672" to="568424675"/>
    <trip id="453" depart="326.16" from="28444031" to="603708716"/>
    <trip id="454" depart="326.88" from="-568424675" to="568424675"/>
    <trip id="455" depart="327.60" from="-8099278#1" to="8099278#1"/>
    <trip id="456" depart="328.32" from="-603708716" to="603708716"/>
    <trip id="457" depart="329.04" from="253335412" to="-568424672"/>
    <trip id="458" depart="329.76" from="253335412" to="568424675"/>
    <trip id="459" depart="330.48" from="28444031" to="603708716"/>
    <trip id="460" depart="331.20" from="253335412" to="8099278#1"/>
    <trip id="461" depart="331.92" from="253335412" to="8099278#1"/>
    <trip id="463" depart="333.36" from="-8099278#1" to="568424675"/>
    <trip id="465" depart="334.80" from="-603708716" to="603708716"/>
    <trip id="467" depart="336.24" from="253335412" to="8099278#1"/>
    <trip id="468" depart="336.96" from="253335412" to="8099278#1"/>
    <trip id="469" depart="337.68" from="28444031" to="-28444031"/>
    <trip id="471" depart="339.12" from="28444031" to="603708716"/>
    <trip id="472" depart="339.84" from="-8099278#1" to="-253335412"/>
    <trip id="473" depart="340.56" from="568424672" to="-253335412"/>
    <trip id="474" depart="341.28" from="568424672" to="8099278#1"/>
    <trip id="478" depart="344.16" from="-568424675" to="568424675"/>
    <trip id="483" depart="347.76" from="-568424675" to="8099278#1"/>
    <trip id="484" depart="348.48" from="253335412" to="8099278#1"/>
    <trip id="488" depart="351.36" from="-568424675" to="8099278#1"/>
    <trip id="490" depart="352.80" from="-568424675" to="8099278#1"/>
    <trip id="491" depart="353.52" from="-568424675" to="-568424672"/>
    <trip id="492" depart="354.24" from="28444031" to="603708716"/>
    <trip id="493" depart="354.96" from="568424672" to="-568424672"/>
    <trip id="495" depart="356.40" from="-8099278#1" to="-253335412"/>
    <trip id="496" depart="357.12" from="-8099278#1" to="-568424672"/>
    <trip id="497" depart="357.84" from="568424672" to="-253335412"/>
    <trip id="498" depart="358.56" from="-8099278#1" to="-568424672"/>
    <trip id="499" depart="359.28" from="568424672" to="8099278#1"/>
    <trip id="501" depart="360.72" from="253335412" to="8099278#1"/>
    <trip id="502" depart="361.44" from="-8099278#1" to="-568424672"/>
    <trip id="504" depart="362.88" from="568424672" to="-568424672"/>
    <trip id="505" depart="363.60" from="253335412" to="568424675"/>
    <trip id="506" depart="364.32" from="253335412" to="-253335412"/>
    <trip id="507" depart="365.04" from="28444031" to="-28444031"/>
    <trip id="508" depart="365.76" from="-568424675" to="568424675"/>
    <trip id="510" depart="367.20" from="-603708716" to="-28444031"/>
    <trip id="512" depart="368.64" from="-568424675" to="8099278#1"/>
    <trip id="513" depart="369.36" from="-568424675" to="8099278#1"/>
    <trip id="514" depart="370.08" from="-568424675" to="-253335412"/>
    <trip id="515" depart="370.80" from="-603708716" to="-28444031"/>
    <trip id="516" depart="371.52" from="253335412" to="-253335412"/>
    <trip id="518" depart="372.96" from="-603708716" to="-28444031"/>
    <trip id="523" depart="376.56" from="-568424675" to="568424675"/>
    <trip id="524" depart="377.28" from="568424672" to="-253335412"/>
    <trip id="526" depart="378.72" from="253335412" to="-568424672"/>
    <trip id="527" depart="379.44" from="568424672" to="-253335412"/>
    <trip id="528" depart="380.16" from="-8099278#1" to="-568424672"/>
    <trip id="530" depart="381.60" from="568424672" to="-253335412"/>
    <trip id="531" depart="382.32" from="-568424675" to="568424675"/>
    <trip id="533" depart="383.76" from="253335412" to="568424675"/>
    <trip id="535" depart="385.20" from="253335412" to="-568424672"/>
    <trip id="536" depart="385.92" from="253335412" to="-253335412"/>
    <trip id="539" depart="388.08" from="28444031" to="-28444031"/>
    <trip id="541" depart="389.52" from="-8099278#1" to="-568424672"/>
    <trip id="542" depart="390.24" from="-8099278#1" to="-253335412"/>
    <trip id="543" depart="390.96" from="-8099278#1" to="568424675"/>
    <trip id="544" depart="391.68" from="-8099278#1" to="-253335412"/>
    <trip id="545" depart="392.40" from="568424672" to="-253335412"/>
    <trip id="549" depart="395.28" from="253335412" to="568424675"/>
    <trip id="551" depart="396.72" from="-8099278#1" to="568424675"/>
    <trip id="554" depart="398.88" from="253335412" to="-568424672"/>
    <trip id="557" depart="401.04" from="-568424675" to="8099278#1"/>
    <trip id="560" depart="403.20" from="568424672" to="8099278#1"/>
    <trip id="562" depart="404.64" from="253335412" to="-253335412"/>
    <trip id="564" depart="406.08" from="-603708716" to="-28444031"/>
    <trip id="565" depart="406.80" from="28444031" to="-28444031"/>
    <trip id="566" depart="407.52" from="-8099278#1" to="-253335412"/>
    <trip id="567" depart="408.24" from="568424672" to="568424675"/>
    <trip id="568" depart="408.96" from="-8099278#1" to="-253335412"/>
    <trip id="569" depart="409.68" from="253335412" to="-253335412"/>
    <trip id="570" depart="410.40" from="28444031" to="-28444031"/>
    <trip id="571" depart="411.12" from="-8099278#1" to="-568424672"/>
    <trip id="574" depart="413.28" from="-568424675" to="-253335412"/>
    <trip id="575" depart="414.00" from="-568424675" to="568424675"/>
    <trip id="576" depart="414.72" from="28444031" to="-28444031"/>
    <trip id="577" depart="415.44" from="253335412" to="-568424672"/>
    <trip id="583" depart="419.76" from="-8099278#1" to="568424675"/>
    <trip id="586" depart="421.92" from="-603708716" to="-28444031"/>
    <trip id="591" depart="425.52" from="-568424675" to="8099278#1"/>
    <trip id="592" depart="426.24" from="-568424675" to="-253335412"/>
    <trip id="593" depart="426.96" from="568424672" to="8099278#1"/>
    <trip id="594" depart="427.68" from="253335412" to="568424675"/>
    <trip id="596" depart="429.12" from="-568424675" to="-253335412"/>
    <trip id="597" depart="429.84" from="-603708716" to="603708716"/>
    <trip id="599" depart="431.28" from="568424672" to="-253335412"/>
    <trip id="601" depart="432.72" from="253335412" to="568424675"/>
    <trip id="605" depart="435.60" from="-568424675" to="568424675"/>
    <trip id="606" depart="436.32" from="568424672" to="-568424672"/>
    <trip id="607" depart="437.04" from="28444031" to="603708716"/>
    <trip id="608" depart="437.76" from="28444031" to="-28444031"/>
    <trip id="613" depart="441.36" from="28444031" to="603708716"/>
    <trip id="614" depart="442.08" from="-8099278#1" to="8099278#1"/>
    <trip id="615" depart="442.80" from="253335412" to="568424675"/>
    <trip id="616" depart="443.52" from="253335412" to="8099278#1"/>
    <trip id="617" depart="444.24" from="253335412" to="-253335412"/>
    <trip id="618" depart="444.96" from="-568424675" to="-568424672"/>
    <trip id="619" depart="445.68" from="-603708716" to="-28444031"/>
    <trip id="620" depart="446.40" from="-568424675" to="568424675"/>
    <trip id="623" depart="448.56" from="-568424675" to="8099278#1"/>
    <trip id="624" depart="449.28" from="568424672" to="568424675"/>
    <trip id="625" depart="450.00" from="253335412" to="-568424672"/>
    <trip id="627" depart="451.44" from="568424672" to="-568424672"/>
    <trip id="630" depart="453.60" from="-568424675" to="-253335412"/>
    <trip id="631" depart="454.32" from="-568424675" to="8099278#1"/>
    <trip id="635" depart="457.20" from="-8099278#1" to="568424675"/>
    <trip id="636" depart="457.92" from="-568424675" to="-568424672"/>
    <trip id="638" depart="459.36" from="-8099278#1" to="568424675"/>
    <trip id="640" depart="460.80" from="-568424675" to="-253335412"/>
    <trip id="641" depart="461.52" from="28444031" to="-28444031"/>
    <trip id="643" depart="462.96" from="568424672" to="8099278#1"/>
    <trip id="644" depart="463.68" from="-8099278#1" to="568424675"/>
    <trip id="645" depart="464.40" from="-568424675" to="-568424672"/>
    <trip id="647" depart="465.84" from="-8099278#1" to="568424675"/>
    <trip id="650" depart="468.00" from="28444031" to="603708716"/>
    <trip id="651" depart="468.72" from="28444031" to="603708716"/>
    <trip id="653" depart="470.16" from="253335412" to="-568424672"/>
    <trip id="654" depart="470.88" from="-8099278#1" to="-568424672"/>
    <trip id="655" depart="471.60" from="-603708716" to="-28444031"/>
    <trip id="656" depart="472.32" from="568424672" to="-568424672"/>
    <trip id="658" depart="473.76" from="-568424675" to="8099278#1"/>
    <trip id="660" depart="475.20" from="568424672" to="8099278#1"/>
    <trip id="661" depart="475.92" from="-568424675" to="-568424672"/>
    <trip id="663" depart="477.36" from="-8099278#1" to="-253335412"/>
    <trip id="664" depart="478.08" from="28444031" to="603708716"/>
    <trip id="666" depart="479.52" from="-8099278#1" to="-568424672"/>
    <trip id="667" depart="480.24" from="28444031" to="-28444031"/>
    <trip id="672" depart="483.84" from="568424672" to="-568424672"/>
    <trip id="673" depart="484.56" from="568424672" to="8099278#1"/>
    <trip id="675" depart="486.00" from="-8099278#1" to="568424675"/>
    <trip id="679" depart="488.88" from="568424672" to="568424675"/>
    <trip id="680" depart="489.60" from="-568424675" to="8099278#1"/>
    <trip id="682" depart="491.04" from="28444031" to="-28444031"/>
    <trip id="683" depart="491.76" from="568424672" to="-253335412"/>
    <trip id="684" depart="492.48" from="-8099278#1" to="8099278#1"/>
    <trip id="686" depart="493.92" from="-8099278#1" to="-253335412"/>
    <trip id="687" depart="494.64" from="-568424675" to="568424675"/>
    <trip id="689" depart="496.08" from="-8099278#1" to="-253335412"/>
    <trip id="690" depart="496.80" from="568424672" to="8099278#1"/>
    <trip id="693" depart="498.96" from="28444031" to="603708716"/>
    <trip id="695" depart="500.40" from="-8099278#1" to="-253335412"/>
    <trip id="697" depart="501.84" from="568424672" to="568424675"/>
    <trip id="702" depart="505.44" from="-8099278#1" to="-253335412"/>
    <trip id="703" depart="506.16" from="568424672" to="568424675"/>
    <trip id="704" depart="506.88" from="-568424675" to="568424675"/>
    <trip id="706" depart="508.32" from="-8099278#1" to="568424675"/>
    <trip id="708" depart="509.76" from="253335412" to="-253335412"/>
    <trip id="709" depart="510.48" from="568424672" to="-253335412"/>
    <trip id="710" depart="511.20" from="253335412" to="568424675"/>
    <trip id="711" depart="511.92" from="568424672" to="568424675"/>
    <trip id="712" depart="512.64" from="-8099278#1" to="-568424672"/>
    <trip id="713" depart="513.36" from="253335412" to="8099278#1"/>
    <trip id="717" depart="516.24" from="28444031" to="603708716"/>