<?xml version="1.0" encoding="UTF-8"?>

<!-- generated on 2024-09-03 01:37:01 by Eclipse SUMO netconvert Version 1.20.0
<configuration xmlns:xsi="http://www.w3.org/2001/XMLSchema-instance" xsi:noNamespaceSchemaLocation="http://sumo.dlr.de/xsd/netconvertConfiguration.xsd">

    <input>
        <osm-files value="train_files/roundabout/easy/osm_files/map(76).osm"/>
    </input>

    <output>
        <output-file value="train_files/roundabout/easy/outputs/map(76)_dict/map(76)/map(76).net.xml"/>
    </output>

    <projection>
        <proj.utm value="true"/>
    </projection>

    <building_defaults>
        <default.junctions.keep-clear value="false"/>
    </building_defaults>

</configuration>
-->

<net version="1.20" junctionCornerDetail="5" limitTurnSpeed="5.50" xmlns:xsi="http://www.w3.org/2001/XMLSchema-instance" xsi:noNamespaceSchemaLocation="http://sumo.dlr.de/xsd/net_file.xsd">

    <location netOffset="-593761.57,-5626841.76" convBoundary="0.00,0.00,379.86,584.79" origBoundary="4.330176,50.785675,4.336002,50.790963" projParameter="+proj=utm +zone=31 +ellps=WGS84 +datum=WGS84 +units=m +no_defs"/>

    <type id="highway.cycleway" priority="1" numLanes="1" speed="5.56" allow="bicycle" oneway="0" width="2.00"/>
    <type id="highway.footway" priority="1" numLanes="1" speed="2.78" allow="pedestrian" oneway="1" width="2.00"/>
    <type id="highway.living_street" priority="2" numLanes="1" speed="2.78" disallow="tram rail_urban rail rail_electric rail_fast ship container cable_car subway aircraft wheelchair scooter drone" oneway="0"/>
    <type id="highway.residential" priority="3" numLanes="1" speed="13.89" disallow="tram rail_urban rail rail_electric rail_fast ship container cable_car subway aircraft wheelchair scooter drone" oneway="0"/>
    <type id="highway.secondary" priority="11" numLanes="1" speed="27.78" disallow="tram rail_urban rail rail_electric rail_fast ship container cable_car subway aircraft wheelchair scooter drone" oneway="0"/>
    <type id="highway.service" priority="1" numLanes="1" speed="5.56" allow="pedestrian delivery bicycle" oneway="0"/>
    <type id="railway.tram" priority="17" numLanes="1" speed="13.89" allow="tram" oneway="1"/>

    <edge id=":140341860_0" function="internal">
        <lane id=":140341860_0_0" index="0" disallow="tram rail_urban rail rail_electric rail_fast ship container cable_car subway aircraft wheelchair scooter drone" speed="8.33" length="5.31" shape="220.63,370.39 219.15,370.92 218.15,371.34 217.19,371.83 215.83,372.62"/>
    </edge>
    <edge id=":150588281_0" function="internal">
        <lane id=":150588281_0_0" index="0" disallow="tram rail_urban rail rail_electric rail_fast ship container cable_car subway aircraft wheelchair scooter drone" speed="8.33" length="0.38" shape="4.22,218.06 4.13,217.96 4.12,217.90 4.17,217.87 4.30,217.89"/>
    </edge>
    <edge id=":150588281_1" function="internal">
        <lane id=":150588281_1_0" index="0" allow="bus bicycle" speed="4.24" length="6.44" shape="4.22,218.06 2.57,216.26 2.13,215.40 2.91,215.49 4.91,216.51"/>
    </edge>
    <edge id=":150588281_2" function="internal">
        <lane id=":150588281_2_0" index="0" allow="bus bicycle" speed="4.09" length="5.76" shape="3.30,219.28 1.64,218.20 1.26,217.61 2.14,217.51 4.30,217.89"/>
    </edge>
    <edge id=":169234629_0" function="internal">
        <lane id=":169234629_0_0" index="0" disallow="tram rail_urban rail rail_electric rail_fast ship container cable_car subway aircraft wheelchair scooter drone" speed="3.65" length="4.67" shape="378.31,-0.41 379.39,-1.36 380.27,-1.55 380.94,-0.96 381.40,0.41"/>
    </edge>
    <edge id=":1858435017_0" function="internal">
        <lane id=":1858435017_0_0" index="0" disallow="tram rail_urban rail rail_electric rail_fast ship container cable_car subway aircraft wheelchair scooter drone" speed="8.33" length="3.14" shape="214.67,339.52 212.58,337.17"/>
    </edge>
    <edge id=":1858435022_0" function="internal">
        <lane id=":1858435022_0_0" index="0" allow="bus bicycle" speed="5.45" length="5.06" shape="271.49,372.00 271.18,372.81 271.39,374.24 271.81,375.77 272.14,376.88"/>
    </edge>
    <edge id=":1858435022_1" function="internal">
        <lane id=":1858435022_1_0" index="0" disallow="tram rail_urban rail rail_electric rail_fast ship container cable_car subway aircraft wheelchair scooter drone" speed="8.33" length="1.81" shape="271.49,372.00 271.00,372.22 270.65,372.33 270.29,372.40 269.76,372.50"/>
    </edge>
    <edge id=":1858435022_2" function="internal">
        <lane id=":1858435022_2_0" index="0" allow="bus bicycle" speed="5.56" length="9.57" shape="269.05,367.85 270.18,370.45 270.88,372.27 271.44,374.13 272.14,376.88"/>
    </edge>
    <edge id=":1858435022_3" function="internal">
        <lane id=":1858435022_3_0" index="0" allow="bus bicycle" speed="4.75" length="5.02" shape="269.05,367.85 269.82,369.79 270.19,371.21 270.17,372.11 269.76,372.50"/>
    </edge>
    <edge id=":1858435024_0" function="internal">
        <lane id=":1858435024_0_0" index="0" disallow="tram rail_urban rail rail_electric rail_fast ship container cable_car subway aircraft wheelchair scooter drone" speed="7.57" length="9.11" shape="263.34,377.79 262.60,376.09 261.15,374.73 259.02,373.73 256.19,373.07"/>
    </edge>
    <edge id=":1858435024_1" function="internal">
        <lane id=":1858435024_1_0" index="0" disallow="tram rail_urban rail rail_electric rail_fast ship container cable_car subway aircraft wheelchair scooter drone" speed="8.33" length="8.18" shape="264.34,373.16 261.91,373.27 260.25,373.38 258.59,373.36 256.19,373.07"/>
    </edge>
    <edge id=":2372998054_0" function="internal">
        <lane id=":2372998054_0_0" index="0" disallow="tram rail_urban rail rail_electric rail_fast ship container cable_car subway aircraft wheelchair scooter drone" speed="5.56" length="2.88" shape="275.77,336.51 275.25,337.18 274.88,337.64 274.53,338.11 274.07,338.82"/>
    </edge>
    <edge id=":2372998054_1" function="internal">
        <lane id=":2372998054_1_0" index="0" disallow="tram rail_urban rail rail_electric rail_fast ship container cable_car subway aircraft wheelchair scooter drone" speed="5.56" length="3.18" shape="271.34,337.14 271.85,336.35 272.24,335.83 272.64,335.32 273.22,334.58"/>
    </edge>
    <edge id=":3103371559_0" function="internal">
        <lane id=":3103371559_0_0" index="0" disallow="tram rail_urban rail rail_electric rail_fast ship container cable_car subway aircraft wheelchair scooter drone" speed="8.33" length="3.41" shape="219.74,331.40 220.40,332.16 220.85,332.69 221.33,333.19 222.07,333.88"/>
    </edge>
    <edge id=":3103371560_0" function="internal">
        <lane id=":3103371560_0_0" index="0" allow="bus bicycle" speed="5.56" length="5.63" shape="218.83,339.38 217.63,338.22 216.83,337.40 216.06,336.55 214.97,335.29"/>
    </edge>
    <edge id=":3103371560_1" function="internal">
        <lane id=":3103371560_1_0" index="0" allow="bus bicycle" speed="3.65" length="1.44" shape="218.83,339.38 218.53,337.97"/>
    </edge>
    <edge id=":3103371560_4" function="internal">
        <lane id=":3103371560_4_0" index="0" allow="bus bicycle" speed="3.65" length="3.23" shape="218.53,337.97 218.80,337.12 219.64,336.82 221.06,337.09"/>
    </edge>
    <edge id=":3103371560_2" function="internal">
        <lane id=":3103371560_2_0" index="0" allow="bus bicycle" speed="5.56" length="5.34" shape="217.40,333.21 218.43,334.41 219.16,335.21 219.92,335.98 221.06,337.09"/>
    </edge>
    <edge id=":3103371560_3" function="internal">
        <lane id=":3103371560_3_0" index="0" allow="bus bicycle" speed="3.65" length="1.44" shape="217.40,333.21 217.57,334.64"/>
    </edge>
    <edge id=":3103371560_5" function="internal">
        <lane id=":3103371560_5_0" index="0" allow="bus bicycle" speed="3.65" length="3.23" shape="217.57,334.64 217.22,335.46 216.35,335.68 214.97,335.29"/>
    </edge>
    <edge id=":3269539506_0" function="internal">
        <lane id=":3269539506_0_0" index="0" disallow="tram rail_urban rail rail_electric rail_fast ship container cable_car subway aircraft wheelchair scooter drone" speed="8.33" length="3.38" shape="7.39,218.58 10.72,219.20"/>
    </edge>
    <edge id=":3269539506_1" function="internal">
        <lane id=":3269539506_1_0" index="0" allow="emergency authority" speed="11.11" length="3.62" shape="7.39,218.58 8.44,218.83 9.13,219.07 9.78,219.43 10.66,220.04"/>
    </edge>
    <edge id=":3269539509_0" function="internal">
        <lane id=":3269539509_0_0" index="0" allow="emergency authority" speed="11.11" length="3.27" shape="10.15,223.85 9.40,223.23 8.87,222.83 8.31,222.48 7.47,221.99"/>
    </edge>
    <edge id=":3269539509_1" function="internal">
        <lane id=":3269539509_1_0" index="0" disallow="tram rail_urban rail rail_electric rail_fast ship container cable_car subway aircraft wheelchair scooter drone" speed="8.33" length="3.32" shape="10.15,223.85 7.72,221.58"/>
    </edge>
    <edge id=":3269539509_2" function="internal">
        <lane id=":3269539509_2_0" index="0" allow="emergency authority tram" speed="13.89" length="3.23" shape="10.31,223.54 7.47,221.99"/>
    </edge>
    <edge id=":3269539509_3" function="internal">
        <lane id=":3269539509_3_0" index="0" allow="emergency authority" speed="11.11" length="3.27" shape="10.31,223.54 9.45,223.09 8.90,222.72 8.40,222.27 7.72,221.58"/>
    </edge>
    <edge id=":3269539554_0" function="internal">
        <lane id=":3269539554_0_0" index="0" allow="emergency authority tram" speed="13.89" length="3.34" shape="217.28,333.29 219.64,335.65"/>
    </edge>
    <edge id=":3269539555_0" function="internal">
        <lane id=":3269539555_0_0" index="0" allow="emergency authority tram" speed="13.89" length="2.72" shape="216.86,337.12 214.98,335.15"/>
    </edge>
    <edge id=":3269539558_0" function="internal">
        <lane id=":3269539558_0_0" index="0" allow="bus bicycle" speed="5.56" length="2.55" shape="220.78,343.13 220.75,342.37 220.75,341.84 220.67,341.33 220.41,340.63"/>
    </edge>
    <edge id=":3269539558_1" function="internal">
        <lane id=":3269539558_1_0" index="0" allow="emergency authority tram" speed="13.89" length="2.16" shape="221.89,342.13 221.38,341.74 221.03,341.47 220.70,341.18 220.25,340.73"/>
    </edge>
    <edge id=":3269539559_0" function="internal">
        <lane id=":3269539559_0_0" index="0" allow="emergency authority" speed="11.11" length="6.08" shape="223.93,339.49 225.26,340.50 226.63,341.18 228.04,341.51 229.48,341.50"/>
    </edge>
    <edge id=":3269539559_1" function="internal">
        <lane id=":3269539559_1_0" index="0" allow="emergency authority tram" speed="13.89" length="10.02" shape="223.93,339.49 226.19,341.40 227.88,342.53 229.69,343.50 232.31,344.91"/>
    </edge>
    <edge id=":3269539559_2" function="internal">
        <lane id=":3269539559_2_0" index="0" disallow="tram rail_urban rail rail_electric rail_fast ship container cable_car subway aircraft wheelchair scooter drone" speed="8.33" length="2.92" shape="226.62,341.99 227.43,341.71 228.01,341.61 228.61,341.57 229.48,341.50"/>
    </edge>
    <edge id=":3269539559_3" function="internal">
        <lane id=":3269539559_3_0" index="0" allow="emergency authority" speed="7.74" length="6.46" shape="226.62,341.99 227.78,342.22 229.49,343.13 231.18,344.19 232.31,344.91"/>
    </edge>
    <edge id=":3269540061_0" function="internal">
        <lane id=":3269540061_0_0" index="0" allow="emergency authority tram" speed="13.89" length="8.43" shape="229.00,346.99 226.83,345.74 225.38,344.83 224.00,343.81 222.04,342.26"/>
    </edge>
    <edge id=":3269540061_1" function="internal">
        <lane id=":3269540061_1_0" index="0" allow="emergency authority" speed="5.54" length="6.50" shape="229.00,346.99 226.69,345.54 225.27,344.33 224.74,343.36 225.09,342.63"/>
    </edge>
    <edge id=":3269540061_2" function="internal">
        <lane id=":3269540061_2_0" index="0" allow="emergency authority" speed="3.70" length="2.70" shape="224.63,343.04 222.04,342.26"/>
    </edge>
    <edge id=":3269540061_3" function="internal">
        <lane id=":3269540061_3_0" index="0" disallow="tram rail_urban rail rail_electric rail_fast ship container cable_car subway aircraft wheelchair scooter drone" speed="8.33" length="0.62" shape="224.63,343.04 224.77,342.93 224.86,342.84 224.95,342.75 225.09,342.63"/>
    </edge>
    <edge id=":3269540082_0" function="internal">
        <lane id=":3269540082_0_0" index="0" allow="emergency authority" speed="6.58" length="7.21" shape="275.64,370.12 274.64,370.93 274.02,372.29 273.78,374.21 273.94,376.69"/>
    </edge>
    <edge id=":3269540082_1" function="internal">
        <lane id=":3269540082_1_0" index="0" disallow="tram rail_urban rail rail_electric rail_fast ship container cable_car subway aircraft wheelchair scooter drone" speed="8.33" length="4.36" shape="275.64,370.12 271.67,371.91"/>
    </edge>
    <edge id=":3269540082_2" function="internal">
        <lane id=":3269540082_2_0" index="0" allow="emergency authority tram" speed="13.89" length="10.51" shape="270.39,366.93 271.90,369.59 272.86,371.58 273.47,373.68 273.94,376.69"/>
    </edge>
    <edge id=":3269540082_3" function="internal">
        <lane id=":3269540082_3_0" index="0" allow="emergency authority" speed="5.80" length="5.46" shape="270.39,366.93 271.41,368.88 271.96,370.37 272.05,371.38 271.67,371.91"/>
    </edge>
    <edge id=":3269540083_0" function="internal">
        <lane id=":3269540083_0_0" index="0" allow="tram" speed="13.89" length="7.76" shape="270.03,375.81 269.57,373.56 269.07,372.06 268.30,370.67 267.02,368.76"/>
    </edge>
    <edge id=":3269540083_1" function="internal">
        <lane id=":3269540083_1_0" index="0" disallow="tram rail_urban rail rail_electric rail_fast ship container cable_car subway aircraft wheelchair scooter drone" speed="8.33" length="5.07" shape="269.56,372.54 268.09,372.84 267.07,373.01 266.04,373.10 264.54,373.15"/>
    </edge>
    <edge id=":3269540083_2" function="internal">
        <lane id=":3269540083_2_0" index="0" allow="emergency authority" speed="5.69" length="4.67" shape="269.56,372.54 268.83,372.15 268.14,371.03 267.52,369.73 267.02,368.76"/>
    </edge>
    <edge id=":3269540091_0" function="internal">
        <lane id=":3269540091_0_0" index="0" allow="emergency authority tram" speed="13.89" length="0.66" shape="274.16,380.08 274.68,379.66"/>
    </edge>
    <edge id=":3269540096_0" function="internal">
        <lane id=":3269540096_0_0" index="0" allow="emergency authority tram" speed="13.89" length="8.46" shape="274.64,379.86 274.17,382.33 273.89,384.03 273.50,385.70 272.70,388.07"/>
    </edge>
    <edge id=":3269540096_1" function="internal">
        <lane id=":3269540096_1_0" index="0" allow="bus bicycle" speed="5.56" length="8.39" shape="272.03,379.79 272.49,382.24 272.86,383.92 273.08,385.61 273.13,388.09"/>
    </edge>
    <edge id=":3271163014_0" function="internal">
        <lane id=":3271163014_0_0" index="0" allow="emergency authority tram" speed="13.89" length="0.10" shape="4.97,220.52 4.97,220.52"/>
    </edge>
    <edge id=":3320948800_0" function="internal">
        <lane id=":3320948800_0_0" index="0" allow="pedestrian bicycle" speed="2.89" length="2.92" width="2.00" shape="62.39,385.61 61.49,385.52 61.04,385.19 61.03,384.63 61.46,383.84"/>
    </edge>
    <edge id=":428678332_0" function="internal">
        <lane id=":428678332_0_0" index="0" disallow="tram rail_urban rail rail_electric rail_fast ship container cable_car subway aircraft wheelchair scooter drone" speed="3.65" length="4.67" shape="326.66,371.22 327.61,372.30 327.79,373.18 327.20,373.85 325.83,374.31"/>
    </edge>
    <edge id=":428678342_0" function="internal">
        <lane id=":428678342_0_0" index="0" disallow="tram rail_urban rail rail_electric rail_fast ship container cable_car subway aircraft wheelchair scooter drone" speed="8.33" length="8.76" shape="283.11,366.70 281.18,368.19 279.80,369.87 278.96,371.75 278.65,373.82"/>
    </edge>
    <edge id=":428678342_1" function="internal">
        <lane id=":428678342_1_0" index="0" disallow="tram rail_urban rail rail_electric rail_fast ship container cable_car subway aircraft wheelchair scooter drone" speed="8.33" length="8.03" shape="283.11,366.70 281.06,367.90 279.57,368.57 278.03,369.14 275.83,370.04"/>
    </edge>
    <edge id=":428678342_2" function="internal">
        <lane id=":428678342_2_0" index="0" disallow="tram rail_urban rail rail_electric rail_fast ship container cable_car subway aircraft wheelchair scooter drone" speed="8.33" length="9.89" shape="278.40,363.93 278.65,373.82"/>
    </edge>
    <edge id=":428678342_3" function="internal">
        <lane id=":428678342_3_0" index="0" disallow="tram rail_urban rail rail_electric rail_fast ship container cable_car subway aircraft wheelchair scooter drone" speed="6.69" length="7.07" shape="278.40,363.93 278.36,366.12 277.92,367.87 277.08,369.18 275.83,370.04"/>
    </edge>
    <edge id=":4360348902_0" function="internal">
        <lane id=":4360348902_0_0" index="0" allow="bicycle" speed="3.86" length="5.37" width="2.00" shape="224.59,332.90 225.77,334.07 226.04,335.07 225.41,335.88 223.87,336.51"/>
    </edge>
    <edge id=":4360348906_0" function="internal">
        <lane id=":4360348906_0_0" index="0" allow="bicycle" speed="2.89" length="2.92" width="2.00" shape="265.78,336.44 265.43,335.61 265.50,335.06 265.98,334.78 266.88,334.77"/>
    </edge>
    <edge id=":4360348921_0" function="internal">
        <lane id=":4360348921_0_0" index="0" allow="bicycle" speed="5.56" length="9.88" width="2.00" shape="291.39,355.58 281.58,356.73"/>
    </edge>
    <edge id=":4360348921_1" function="internal">
        <lane id=":4360348921_1_0" index="0" allow="pedestrian bicycle" speed="2.89" length="2.39" width="2.00" shape="291.39,355.58 290.59,355.17 290.28,354.70 290.47,354.17 290.75,353.93"/>
    </edge>
    <edge id=":4360348921_4" function="internal">
        <lane id=":4360348921_4_0" index="0" allow="pedestrian bicycle" speed="2.89" length="0.53" width="2.00" shape="290.75,353.93 291.16,353.59"/>
    </edge>
    <edge id=":4360348921_2" function="internal">
        <lane id=":4360348921_2_0" index="0" allow="bicycle" speed="5.56" length="9.99" width="2.00" shape="281.24,354.76 291.16,353.59"/>
    </edge>
    <edge id=":4360348921_3" function="internal">
        <lane id=":4360348921_3_0" index="0" allow="bicycle" speed="2.89" length="1.46" width="2.00" shape="281.24,354.76 282.06,355.12 282.39,355.57"/>
    </edge>
    <edge id=":4360348921_5" function="internal">
        <lane id=":4360348921_5_0" index="0" allow="bicycle" speed="2.89" length="1.46" width="2.00" shape="282.39,355.57 282.23,356.11 281.58,356.73"/>
    </edge>
    <edge id=":4360348922_0" function="internal">
        <lane id=":4360348922_0_0" index="0" allow="pedestrian bicycle" speed="5.56" length="5.14" width="2.00" shape="297.25,354.95 292.14,355.49"/>
    </edge>
    <edge id=":4360348922_1" function="internal">
        <lane id=":4360348922_1_0" index="0" allow="pedestrian bicycle" speed="2.89" length="0.79" width="2.00" shape="297.25,354.95 296.55,354.57"/>
    </edge>
    <edge id=":4360348922_4" function="internal">
        <lane id=":4360348922_4_0" index="0" allow="pedestrian bicycle" speed="2.89" length="2.13" width="2.00" shape="296.55,354.57 296.46,354.52 296.17,354.04 296.37,353.52 297.08,352.96"/>
    </edge>
    <edge id=":4360348922_2" function="internal">
        <lane id=":4360348922_2_0" index="0" allow="pedestrian bicycle" speed="5.56" length="5.21" width="2.00" shape="291.90,353.50 297.08,352.96"/>
    </edge>
    <edge id=":4360348922_3" function="internal">
        <lane id=":4360348922_3_0" index="0" allow="pedestrian bicycle" speed="2.89" length="2.42" width="2.00" shape="291.90,353.50 292.71,353.91 293.01,354.38 292.82,354.90 292.52,355.16"/>
    </edge>
    <edge id=":4360348922_5" function="internal">
        <lane id=":4360348922_5_0" index="0" allow="pedestrian bicycle" speed="2.89" length="0.50" width="2.00" shape="292.52,355.16 292.14,355.49"/>
    </edge>
    <edge id=":4406740288_0" function="internal">
        <lane id=":4406740288_0_0" index="0" allow="bus bicycle" speed="5.56" length="1.15" shape="220.30,340.38 220.11,340.14 219.87,340.07 219.61,340.03 219.32,339.86"/>
    </edge>
    <edge id=":4406740288_1" function="internal">
        <lane id=":4406740288_1_0" index="0" allow="bus bicycle" speed="3.54" length="3.70" shape="220.30,340.38 219.84,339.15 219.87,338.62 220.39,338.78 221.39,339.65"/>
    </edge>
    <edge id=":4406740288_2" function="internal">
        <lane id=":4406740288_2_0" index="0" allow="bus bicycle" speed="5.56" length="2.09" shape="221.55,337.56 221.39,339.65"/>
    </edge>
    <edge id=":4406740288_3" function="internal">
        <lane id=":4406740288_3_0" index="0" allow="bus bicycle" speed="3.65" length="4.67" shape="221.55,337.56 221.86,338.97 221.59,339.83 220.74,340.12 219.32,339.86"/>
    </edge>
    <edge id=":5089429191_0" function="internal">
        <lane id=":5089429191_0_0" index="0" disallow="tram rail_urban rail rail_electric rail_fast ship container cable_car subway aircraft wheelchair scooter drone" speed="8.33" length="5.21" shape="254.30,346.00 259.46,346.73"/>
    </edge>
    <edge id=":5089429197_0" function="internal">
        <lane id=":5089429197_0_0" index="0" allow="emergency authority tram" speed="13.89" length="4.91" shape="267.24,363.04 268.25,364.10 268.95,364.81 269.57,365.59 270.33,366.83"/>
    </edge>
    <edge id=":5089429198_0" function="internal">
        <lane id=":5089429198_0_0" index="0" allow="bus bicycle" speed="5.56" length="5.16" shape="265.57,363.91 266.79,364.84 267.63,365.51 268.29,366.32 268.97,367.67"/>
    </edge>
    <edge id=":5089429199_0" function="internal">
        <lane id=":5089429199_0_0" index="0" allow="emergency authority tram" speed="13.89" length="4.47" shape="266.91,368.59 266.16,367.50 265.59,366.79 264.95,366.14 263.99,365.24"/>
    </edge>
    <edge id=":5089429203_0" function="internal">
        <lane id=":5089429203_0_0" index="0" disallow="tram rail_urban rail rail_electric rail_fast ship container cable_car subway aircraft wheelchair scooter drone" speed="8.33" length="5.14" shape="244.40,371.26 239.32,370.43"/>
    </edge>
    <edge id=":5089429204_0" function="internal">
        <lane id=":5089429204_0_0" index="0" allow="bus bicycle" speed="5.56" length="0.48" shape="272.47,379.66 271.99,379.60"/>
    </edge>
    <edge id=":5089429205_0" function="internal">
        <lane id=":5089429205_0_0" index="0" allow="tram" speed="13.89" length="5.33" shape="270.20,384.81 270.42,383.25 270.54,382.17 270.57,381.09 270.56,379.51"/>
    </edge>
    <edge id=":5089429206_0" function="internal">
        <lane id=":5089429206_0_0" index="0" disallow="tram rail_urban rail rail_electric rail_fast ship container cable_car subway aircraft wheelchair scooter drone" speed="8.33" length="6.27" shape="264.50,384.06 263.36,377.89"/>
    </edge>
    <edge id=":5089429209_0" function="internal">
        <lane id=":5089429209_0_0" index="0" disallow="tram rail_urban rail rail_electric rail_fast ship container cable_car subway aircraft wheelchair scooter drone" speed="8.33" length="5.32" shape="277.58,380.68 277.27,382.22 276.99,383.26 276.66,384.29 276.17,385.79"/>
    </edge>
    <edge id=":5122479480_0" function="internal">
        <lane id=":5122479480_0_0" index="0" disallow="tram rail_urban rail rail_electric rail_fast ship container cable_car subway aircraft wheelchair scooter drone" speed="8.33" length="4.96" shape="219.79,354.73 219.75,353.28 219.89,352.28 220.18,351.30 220.55,349.87"/>
    </edge>
    <edge id=":5912214024_0" function="internal">
        <lane id=":5912214024_0_0" index="0" allow="bicycle" speed="5.56" length="2.20" width="2.00" shape="222.95,337.11 221.13,338.35"/>
    </edge>
    <edge id=":5912214024_1" function="internal">
        <lane id=":5912214024_1_0" index="0" allow="bicycle" speed="2.89" length="2.92" width="2.00" shape="222.95,337.11 222.05,337.11 221.56,336.83 221.50,336.28 221.84,335.45"/>
    </edge>
    <edge id=":5912214024_2" function="internal">
        <lane id=":5912214024_2_0" index="0" allow="emergency authority tram" speed="13.89" length="5.35" shape="219.79,335.79 223.78,339.36"/>
    </edge>
    <edge id=":5912214024_3" function="internal">
        <lane id=":5912214024_3_0" index="0" allow="bicycle" speed="5.56" length="2.25" width="2.00" shape="219.98,336.71 221.84,335.45"/>
    </edge>
    <edge id=":5912214024_4" function="internal">
        <lane id=":5912214024_4_0" index="0" allow="bicycle" speed="2.89" length="2.92" width="2.00" shape="219.98,336.71 220.88,336.69 221.37,336.95 221.46,337.51 221.13,338.35"/>
    </edge>
    <edge id=":5912214025_0" function="internal">
        <lane id=":5912214025_0_0" index="0" allow="bicycle" speed="3.29" length="2.35" width="2.00" shape="220.97,338.46 220.76,338.81 221.13,339.07 221.80,339.34 222.47,339.71"/>
    </edge>
    <edge id=":5912214025_1" function="internal">
        <lane id=":5912214025_1_0" index="0" allow="bicycle" speed="5.56" length="0.84" width="2.00" shape="220.97,338.46 220.28,338.94"/>
    </edge>
    <edge id=":5912214025_2" function="internal">
        <lane id=":5912214025_2_0" index="0" allow="bicycle" speed="2.89" length="2.92" width="2.00" shape="220.97,338.46 220.07,338.48 219.57,338.22 219.49,337.67 219.82,336.83"/>
    </edge>
    <edge id=":5912214025_3" function="internal">
        <lane id=":5912214025_3_0" index="0" allow="bicycle" speed="4.54" length="3.31" width="2.00" shape="221.95,339.36 219.82,336.83"/>
    </edge>
    <edge id=":5912214025_4" function="internal">
        <lane id=":5912214025_4_0" index="0" allow="bus bicycle" speed="5.56" length="0.68" shape="221.54,339.79 221.69,339.92 221.81,339.99 221.93,340.06 222.10,340.18"/>
    </edge>
    <edge id=":5912214025_5" function="internal">
        <lane id=":5912214025_5_0" index="0" allow="bicycle" speed="3.17" length="1.52" width="2.00" shape="221.12,340.22 220.28,338.94"/>
    </edge>
    <edge id=":5912214025_6" function="internal">
        <lane id=":5912214025_6_0" index="0" allow="bicycle" speed="5.56" length="0.86" width="2.00" shape="219.12,337.32 219.82,336.83"/>
    </edge>
    <edge id=":5912214025_7" function="internal">
        <lane id=":5912214025_7_0" index="0" allow="bicycle" speed="5.05" length="4.27" width="2.00" shape="219.12,337.32 219.87,337.36 220.80,338.06 221.73,338.99 222.47,339.71"/>
    </edge>
    <edge id=":5912214025_8" function="internal">
        <lane id=":5912214025_8_0" index="0" allow="bicycle" speed="2.89" length="2.92" width="2.00" shape="219.12,337.32 220.02,337.29 220.51,337.55 220.60,338.10 220.28,338.94"/>
    </edge>
    <edge id=":5912214026_0" function="internal">
        <lane id=":5912214026_0_0" index="0" allow="bicycle" speed="2.99" length="1.26" width="2.00" shape="219.78,340.69 219.58,339.45"/>
    </edge>
    <edge id=":5912214026_1" function="internal">
        <lane id=":5912214026_1_0" index="0" allow="bus bicycle" speed="5.56" length="0.12" shape="220.33,340.45 220.38,340.56"/>
    </edge>
    <edge id=":5912214026_2" function="internal">
        <lane id=":5912214026_2_0" index="0" allow="bicycle" speed="4.61" length="3.37" width="2.00" shape="220.87,340.21 218.95,337.44"/>
    </edge>
    <edge id=":5912214026_3" function="internal">
        <lane id=":5912214026_3_0" index="0" allow="bicycle" speed="5.56" length="0.67" width="2.00" shape="220.12,339.06 219.58,339.45"/>
    </edge>
    <edge id=":5912214026_4" function="internal">
        <lane id=":5912214026_4_0" index="0" allow="bicycle" speed="3.03" length="1.77" width="2.00" shape="220.12,339.06 219.83,340.80"/>
    </edge>
    <edge id=":5912214026_5" function="internal">
        <lane id=":5912214026_5_0" index="0" allow="bicycle" speed="2.89" length="2.92" width="2.00" shape="220.12,339.06 219.22,339.09 218.72,338.83 218.64,338.28 218.95,337.44"/>
    </edge>
    <edge id=":5912214026_6" function="internal">
        <lane id=":5912214026_6_0" index="0" allow="bicycle" speed="4.38" length="3.30" width="2.00" shape="218.41,337.83 219.83,340.80"/>
    </edge>
    <edge id=":5912214026_7" function="internal">
        <lane id=":5912214026_7_0" index="0" allow="bicycle" speed="5.56" length="0.67" width="2.00" shape="218.41,337.83 218.95,337.44"/>
    </edge>
    <edge id=":5912214026_8" function="internal">
        <lane id=":5912214026_8_0" index="0" allow="bicycle" speed="2.89" length="2.92" width="2.00" shape="218.41,337.83 219.31,337.80 219.80,338.05 219.89,338.61 219.58,339.45"/>
    </edge>
    <edge id=":5912214027_0" function="internal">
        <lane id=":5912214027_0_0" index="0" allow="emergency authority tram" speed="13.89" length="4.55" shape="220.11,340.58 217.00,337.26"/>
    </edge>
    <edge id=":5912214027_1" function="internal">
        <lane id=":5912214027_1_0" index="0" allow="bicycle" speed="5.56" length="1.90" width="2.00" shape="219.41,339.57 217.87,340.68"/>
    </edge>
    <edge id=":5912214027_2" function="internal">
        <lane id=":5912214027_2_0" index="0" allow="bicycle" speed="2.89" length="2.92" width="2.00" shape="219.41,339.57 218.51,339.60 218.02,339.34 217.93,338.79 218.25,337.94"/>
    </edge>
    <edge id=":5912214027_3" function="internal">
        <lane id=":5912214027_3_0" index="0" allow="bicycle" speed="5.56" length="2.00" width="2.00" shape="216.62,339.12 218.25,337.94"/>
    </edge>
    <edge id=":5912214027_4" function="internal">
        <lane id=":5912214027_4_0" index="0" allow="bicycle" speed="2.89" length="2.92" width="2.00" shape="216.62,339.12 217.52,339.04 218.03,339.27 218.14,339.82 217.87,340.68"/>
    </edge>
    <edge id=":5912214028_0" function="internal">