<?xml version="1.0" encoding="UTF-8"?>

<!-- generated on 2024-09-03 01:38:49 by Eclipse SUMO netconvert Version 1.20.0
<configuration xmlns:xsi="http://www.w3.org/2001/XMLSchema-instance" xsi:noNamespaceSchemaLocation="http://sumo.dlr.de/xsd/netconvertConfiguration.xsd">

    <input>
        <osm-files value="train_files/intersection/hard/osm_files/map(87).osm"/>
    </input>

    <output>
        <output-file value="train_files/intersection/hard/outputs/map(87)_dict/map(87)/map(87).net.xml"/>
    </output>

    <projection>
        <proj.utm value="true"/>
    </projection>

    <building_defaults>
        <default.junctions.keep-clear value="false"/>
    </building_defaults>

</configuration>
-->

<net version="1.20" junctionCornerDetail="5" limitTurnSpeed="5.50" xmlns:xsi="http://www.w3.org/2001/XMLSchema-instance" xsi:noNamespaceSchemaLocation="http://sumo.dlr.de/xsd/net_file.xsd">

    <location netOffset="-411891.04,-5792108.29" convBoundary="0.00,0.00,156.24,189.04" origBoundary="7.708642,52.272289,7.710945,52.273998" projParameter="+proj=utm +zone=32 +ellps=WGS84 +datum=WGS84 +units=m +no_defs"/>

    <type id="highway.secondary" priority="11" numLanes="1" speed="27.78" disallow="tram rail_urban rail rail_electric rail_fast ship container cable_car subway aircraft wheelchair scooter drone" oneway="0"/>

    <edge id=":236954110_0" function="internal">
        <lane id=":236954110_0_0" index="0" disallow="tram rail_urban rail rail_electric rail_fast ship container cable_car subway aircraft wheelchair scooter drone" speed="8.65" length="15.78" shape="74.13,138.91 71.35,133.84 68.63,130.50 65.97,128.89 63.38,129.01"/>
    </edge>
    <edge id=":236954110_1" function="internal">
        <lane id=":236954110_1_0" index="0" disallow="tram rail_urban rail rail_electric rail_fast ship container cable_car subway aircraft wheelchair scooter drone" speed="13.89" length="25.23" shape="74.13,138.91 71.45,131.98 69.58,125.20 68.17,119.24 66.82,114.80"/>
    </edge>
    <edge id=":236954110_2" function="internal">
        <lane id=":236954110_2_0" index="0" disallow="tram rail_urban rail rail_electric rail_fast ship container cable_car subway aircraft wheelchair scooter drone" speed="9.19" length="10.52" shape="77.02,137.53 74.69,130.91 74.68,127.41"/>
    </edge>
    <edge id=":236954110_3" function="internal">
        <lane id=":236954110_3_0" index="0" disallow="tram rail_urban rail rail_electric rail_fast ship container cable_car subway aircraft wheelchair scooter drone" speed="3.65" length="1.44" shape="77.02,137.53 77.23,136.11"/>
    </edge>
    <edge id=":236954110_16" function="internal">
        <lane id=":236954110_16_0" index="0" disallow="tram rail_urban rail rail_electric rail_fast ship container cable_car subway aircraft wheelchair scooter drone" speed="9.19" length="11.20" shape="74.68,127.41 74.67,125.73 76.97,122.02 81.59,119.75"/>
    </edge>
    <edge id=":236954110_17" function="internal">
        <lane id=":236954110_17_0" index="0" disallow="tram rail_urban rail rail_electric rail_fast ship container cable_car subway aircraft wheelchair scooter drone" speed="3.65" length="3.23" shape="77.23,136.11 77.78,135.40 78.67,135.42 79.91,136.16"/>
    </edge>
    <edge id=":236954110_4" function="internal">
        <lane id=":236954110_4_0" index="0" disallow="tram rail_urban rail rail_electric rail_fast ship container cable_car subway aircraft wheelchair scooter drone" speed="6.37" length="9.83" shape="84.06,129.03 81.29,130.14 79.68,131.70 79.22,133.71 79.91,136.16"/>
    </edge>
    <edge id=":236954110_5" function="internal">
        <lane id=":236954110_5_0" index="0" disallow="tram rail_urban rail rail_electric rail_fast ship container cable_car subway aircraft wheelchair scooter drone" speed="11.11" length="20.13" shape="83.23,125.94 76.69,127.26 71.42,127.77 67.09,128.14 63.38,129.01"/>
    </edge>
    <edge id=":236954110_6" function="internal">
        <lane id=":236954110_6_0" index="0" disallow="tram rail_urban rail rail_electric rail_fast ship container cable_car subway aircraft wheelchair scooter drone" speed="9.77" length="6.98" shape="82.41,122.84 77.29,123.44 75.52,122.97"/>
    </edge>
    <edge id=":236954110_7" function="internal">
        <lane id=":236954110_7_0" index="0" disallow="tram rail_urban rail rail_electric rail_fast ship container cable_car subway aircraft wheelchair scooter drone" speed="3.65" length="1.44" shape="82.41,122.84 81.05,122.38"/>
    </edge>
    <edge id=":236954110_18" function="internal">
        <lane id=":236954110_18_0" index="0" disallow="tram rail_urban rail rail_electric rail_fast ship container cable_car subway aircraft wheelchair scooter drone" speed="9.77" length="12.49" shape="75.52,122.97 72.99,122.30 69.50,119.42 66.82,114.80"/>
    </edge>
    <edge id=":236954110_19" function="internal">
        <lane id=":236954110_19_0" index="0" disallow="tram rail_urban rail rail_electric rail_fast ship container cable_car subway aircraft wheelchair scooter drone" speed="3.65" length="3.23" shape="81.05,122.38 80.45,121.71 80.64,120.83 81.59,119.75"/>
    </edge>
    <edge id=":236954110_8" function="internal">
        <lane id=":236954110_8_0" index="0" disallow="tram rail_urban rail rail_electric rail_fast ship container cable_car subway aircraft wheelchair scooter drone" speed="7.95" length="12.60" shape="72.74,112.35 74.65,116.11 76.77,118.60 79.08,119.81 81.59,119.75"/>
    </edge>
    <edge id=":236954110_9" function="internal">
        <lane id=":236954110_9_0" index="0" disallow="tram rail_urban rail rail_electric rail_fast ship container cable_car subway aircraft wheelchair scooter drone" speed="13.89" length="24.88" shape="72.74,112.35 75.17,119.34 76.95,126.03 78.42,131.83 79.91,136.16"/>
    </edge>
    <edge id=":236954110_10" function="internal">
        <lane id=":236954110_10_0" index="0" disallow="tram rail_urban rail rail_electric rail_fast ship container cable_car subway aircraft wheelchair scooter drone" speed="9.13" length="6.47" shape="69.78,113.58 71.12,118.74 70.96,119.86"/>
    </edge>
    <edge id=":236954110_11" function="internal">
        <lane id=":236954110_11_0" index="0" disallow="tram rail_urban rail rail_electric rail_fast ship container cable_car subway aircraft wheelchair scooter drone" speed="3.65" length="1.44" shape="69.78,113.58 69.50,114.99"/>
    </edge>
    <edge id=":236954110_20" function="internal">
        <lane id=":236954110_20_0" index="0" disallow="tram rail_urban rail rail_electric rail_fast ship container cable_car subway aircraft wheelchair scooter drone" speed="9.13" length="12.70" shape="70.96,119.86 70.50,123.04 67.92,126.46 63.38,129.01"/>
    </edge>
    <edge id=":236954110_21" function="internal">
        <lane id=":236954110_21_0" index="0" disallow="tram rail_urban rail rail_electric rail_fast ship container cable_car subway aircraft wheelchair scooter drone" speed="3.65" length="3.23" shape="69.50,114.99 68.91,115.67 68.02,115.60 66.82,114.80"/>
    </edge>
    <edge id=":236954110_12" function="internal">
        <lane id=":236954110_12_0" index="0" disallow="tram rail_urban rail rail_electric rail_fast ship container cable_car subway aircraft wheelchair scooter drone" speed="7.16" length="11.37" shape="61.09,123.03 64.41,121.39 66.47,119.46 67.27,117.27 66.82,114.80"/>
    </edge>
    <edge id=":236954110_13" function="internal">
        <lane id=":236954110_13_0" index="0" disallow="tram rail_urban rail rail_electric rail_fast ship container cable_car subway aircraft wheelchair scooter drone" speed="11.11" length="20.84" shape="61.09,123.03 67.55,121.19 73.03,120.53 77.66,120.30 81.59,119.75"/>
    </edge>
    <edge id=":236954110_14" function="internal">
        <lane id=":236954110_14_0" index="0" disallow="tram rail_urban rail rail_electric rail_fast ship container cable_car subway aircraft wheelchair scooter drone" speed="10.29" length="6.41" shape="62.24,126.02 67.42,125.09 68.51,125.42"/>
    </edge>
    <edge id=":236954110_15" function="internal">
        <lane id=":236954110_15_0" index="0" disallow="tram rail_urban rail rail_electric rail_fast ship container cable_car subway aircraft wheelchair scooter drone" speed="3.65" length="1.44" shape="62.24,126.02 63.64,126.34"/>
    </edge>
    <edge id=":236954110_22" function="internal">
        <lane id=":236954110_22_0" index="0" disallow="tram rail_urban rail rail_electric rail_fast ship container cable_car subway aircraft wheelchair scooter drone" speed="10.29" length="16.32" shape="68.51,125.42 72.10,126.47 76.26,130.16 79.91,136.16"/>
    </edge>
    <edge id=":236954110_23" function="internal">
        <lane id=":236954110_23_0" index="0" disallow="tram rail_urban rail rail_electric rail_fast ship container cable_car subway aircraft wheelchair scooter drone" speed="3.65" length="3.23" shape="63.64,126.34 64.30,126.94 64.22,127.83 63.38,129.01"/>
    </edge>
    <edge id=":410236808_0" function="internal">
        <lane id=":410236808_0_0" index="0" disallow="tram rail_urban rail rail_electric rail_fast ship container cable_car subway aircraft wheelchair scooter drone" speed="3.65" length="4.67" shape="155.80,99.33 157.17,99.77 157.78,100.43 157.61,101.31 156.68,102.41"/>
    </edge>
    <edge id=":7017915760_0" function="internal">
        <lane id=":7017915760_0_0" index="0" disallow="tram rail_urban rail rail_electric rail_fast ship container cable_car subway aircraft wheelchair scooter drone" speed="3.65" length="4.67" shape="41.02,-0.02 41.83,-1.21 42.64,-1.60 43.43,-1.19 44.21,0.02"/>
    </edge>
    <edge id=":7018028306_0" function="internal">
        <lane id=":7018028306_0_0" index="0" disallow="tram rail_urban rail rail_electric rail_fast ship container cable_car subway aircraft wheelchair scooter drone" speed="3.65" length="4.67" shape="106.18,188.30 106.03,189.73 105.51,190.46 104.62,190.48 103.35,189.78"/>
    </edge>
    <edge id=":7018268887_0" function="internal">
        <lane id=":7018268887_0_0" index="0" disallow="tram rail_urban rail rail_electric rail_fast ship container cable_car subway aircraft wheelchair scooter drone" speed="3.65" length="4.67" shape="0.66,154.62 -0.77,154.38 -1.46,153.82 -1.42,152.92 -0.66,151.70"/>
    </edge>

    <edge id="-26614493" from="7017915760" to="236954110" priority="11" type="highway.secondary" shape="42.61,0.00 42.49,9.87 45.69,38.66 49.76,61.24 52.28,70.41 56.44,85.49 72.31,123.88">
        <lane id="-26614493_0" index="0" disallow="tram rail_urban rail rail_electric rail_fast ship container cable_car subway aircraft wheelchair scooter drone" speed="13.89" length="116.69" shape="47.41,0.06 47.29,9.63 50.45,37.97 54.45,60.18 56.91,69.13 60.99,83.93 72.74,112.35"/>
        <lane id="-26614493_1" index="1" disallow="tram rail_urban rail rail_electric rail_fast ship container cable_car subway aircraft wheelchair scooter drone" speed="13.89" length="116.69" shape="44.21,0.02 44.09,9.79 47.28,38.43 51.32,60.89 53.83,69.98 57.96,84.97 69.78,113.58"/>
        <param key="ref" value="L 504"/>
    </edge>
    <edge id="-565524289" from="236954110" to="7018028306" priority="11" type="highway.secondary" shape="72.31,123.88 86.40,153.54 97.68,175.27 101.57,182.91 102.88,185.45 104.77,189.04">
        <lane id="-565524289_0" index="0" disallow="tram rail_urban rail rail_electric rail_fast ship container cable_car subway aircraft wheelchair scooter drone" speed="13.89" length="58.39" shape="79.91,136.16 87.83,152.83 99.10,174.54 103.00,182.18 104.30,184.71 106.18,188.30"/>
        <param key="ref" value="L 504"/>
    </edge>
    <edge id="-750581380" from="410236808" to="236954110" priority="11" type="highway.secondary" shape="156.24,100.87 117.57,111.83 72.31,123.88">
        <lane id="-750581380_0" index="0" disallow="tram rail_urban rail rail_electric rail_fast ship container cable_car subway aircraft wheelchair scooter drone" speed="8.33" length="77.08" shape="158.42,108.56 119.69,119.55 84.06,129.03"/>
        <lane id="-750581380_1" index="1" disallow="tram rail_urban rail rail_electric rail_fast ship container cable_car subway aircraft wheelchair scooter drone" speed="8.33" length="77.08" shape="157.55,105.48 118.85,116.46 83.23,125.94"/>
        <lane id="-750581380_2" index="2" disallow="tram rail_urban rail rail_electric rail_fast ship container cable_car subway aircraft wheelchair scooter drone" speed="8.33" length="77.08" shape="156.68,102.41 118.00,113.38 82.41,122.84"/>
        <param key="ref" value="L 594"/>
    </edge>
    <edge id="-750606420" from="236954110" to="7018268887" priority="11" type="highway.secondary" shape="72.31,123.88 25.68,141.74 22.84,143.01 8.88,149.16 4.75,151.02 0.00,153.16">
        <lane id="-750606420_0" index="0" disallow="tram rail_urban rail rail_electric rail_fast ship container cable_car subway aircraft wheelchair scooter drone" speed="13.89" length="67.77" shape="63.38,129.01 26.29,143.22 23.49,144.47 9.52,150.62 5.41,152.47 0.66,154.62"/>
        <param key="ref" value="L 594"/>
    </edge>
    <edge id="26614493" from="236954110" to="7017915760" priority="11" type="highway.secondary" shape="72.31,123.88 56.44,85.49 52.28,70.41 49.76,61.24 45.69,38.66 42.49,9.87 42.61,0.00">
        <lane id="26614493_0" index="0" disallow="tram rail_urban rail rail_electric rail_fast ship container cable_car subway aircraft wheelchair scooter drone" speed="13.89" length="118.63" shape="66.82,114.80 54.93,86.01 50.74,70.83 48.20,61.60 44.11,38.89 40.89,9.95 41.02,-0.02"/>
        <param key="ref" value="L 504"/>
    </edge>
    <edge id="565524289" from="7018028306" to="236954110" priority="11" type="highway.secondary" shape="104.77,189.04 102.88,185.45 101.57,182.91 97.68,175.27 86.40,153.54 72.31,123.88">
        <lane id="565524289_0" index="0" disallow="tram rail_urban rail rail_electric rail_fast ship container cable_car subway aircraft wheelchair scooter drone" speed="13.89" length="58.58" shape="100.52,191.27 98.62,187.67 97.30,185.10 93.41,177.47 82.10,155.68 74.13,138.91"/>
        <lane id="565524289_1" index="1" disallow="tram rail_urban rail rail_electric rail_fast ship container cable_car subway aircraft wheelchair scooter drone" speed="13.89" length="58.58" shape="103.35,189.78 101.46,186.19 100.15,183.64 96.26,176.00 84.96,154.26 77.02,137.53"/>
        <param key="ref" value="L 504"/>
    </edge>
    <edge id="750581380" from="236954110" to="410236808" priority="11" type="highway.secondary" shape="72.31,123.88 117.57,111.83 156.24,100.87">
        <lane id="750581380_0" index="0" disallow="tram rail_urban rail rail_electric rail_fast ship container cable_car subway aircraft wheelchair scooter drone" speed="8.33" length="76.97" shape="81.59,119.75 117.15,110.29 155.80,99.33"/>
        <param key="ref" value="L 594"/>
    </edge>
    <edge id="750606420" from="7018268887" to="236954110" priority="11" type="highway.secondary" shape="0.00,153.16 4.75,151.02 8.88,149.16 22.84,143.01 25.68,141.74 72.31,123.88">
        <lane id="750606420_0" index="0" disallow="tram rail_urban rail rail_electric rail_fast ship container cable_car subway aircraft wheelchair scooter drone" speed="13.89" length="68.05" shape="-1.97,148.78 2.78,146.64 6.92,144.78 20.90,138.61 23.84,137.31 61.09,123.03"/>
        <lane id="750606420_1" index="1" disallow="tram rail_urban rail rail_electric rail_fast ship container cable_car subway aircraft wheelchair scooter drone" speed="13.89" length="68.05" shape="-0.66,151.70 4.10,149.56 8.23,147.70 22.19,141.54 25.06,140.26 62.24,126.02"/>
        <param key="ref" value="L 594"/>
    </edge>

    <tlLogic id="236954110" type="static" programID="0" offset="0">
        <phase duration="33" state="GGggrrrrGGggrrrr"/>
        <phase duration="3"  state="yyggrrrryyggrrrr"/>
        <phase duration="6"  state="rrGGrrrrrrGGrrrr"/>
        <phase duration="3"  state="rryyrrrrrryyrrrr"/>
        <phase duration="33" state="rrrrGGggrrrrGGgg"/>
        <phase duration="3"  state="rrrryyggrrrryygg"/>
        <phase duration="6"  state="rrrrrrGGrrrrrrGG"/>
        <phase duration="3"  state="rrrrrryyrrrrrryy"/>
    </tlLogic>

    <junction id="236954110" type="traffic_light" x="72.31" y="123.88" incLanes="565524289_0 565524289_1 -750581380_0 -750581380_1 -750581380_2 -26614493_0 -26614493_1 750606420_0 750606420_1" intLanes=":236954110_0_0 :236954110_1_0 :236954110_16_0 :236954110_17_0 :236954110_4_0 :236954110_5_0 :236954110_18_0 :236954110_19_0 :236954110_8_0 :236954110_9_0 :236954110_20_0 :236954110_21_0 :236954110_12_0 :236954110_13_0 :236954110_22_0 :236954110_23_0" shape="72.68,139.59 81.36,135.47 80.94,133.32 81.28,132.44 81.98,131.69 83.04,131.07 84.47,130.58 81.18,118.21 78.69,117.95 77.51,117.10 76.37,115.79 75.27,114.00 74.22,111.74 65.34,115.41 65.49,117.73 64.90,118.79 63.88,119.78 62.42,120.69 60.52,121.54 63.95,130.50 66.58,130.88 68.00,132.06 69.49,133.91 71.05,136.42">
        <request index="0"  response="0000000000000000" foes="1000010000100000" cont="0"/>
        <request index="1"  response="0100000001000000" foes="0111110001100000" cont="0"/>
        <request index="2"  response="0100001101000000" foes="0110001111100000" cont="1"/>
        <request index="3"  response="0100001000010000" foes="0100001000010000" cont="1"/>
        <request index="4"  response="0000001000000000" foes="0100001000001000" cont="0"/>
        <request index="5"  response="0000011000000111" foes="1100011000000111" cont="0"/>
        <request index="6"  response="0011011000000110" foes="0011111000000110" cont="1"/>
        <request index="7"  response="0010000100000100" foes="0010000100000100" cont="1"/>
        <request index="8"  response="0000000000000000" foes="0010000010000100" cont="0"/>
        <request index="9"  response="0100000001000000" foes="0110000001111100" cont="0"/>
        <request index="10" response="0100000001000011" foes="1110000001100011" cont="1"/>
        <request index="11" response="0001000001000010" foes="0001000001000010" cont="1"/>
        <request index="12" response="0000000000000010" foes="0000100001000010" cont="0"/>
        <request index="13" response="0000011100000110" foes="0000011111000110" cont="0"/>
        <request index="14" response="0000011000110110" foes="0000011000111110" cont="1"/>
        <request index="15" response="0000010000100001" foes="0000010000100001" cont="1"/>
    </junction>
    <junction id="410236808" type="priority" x="156.24" y="100.87" incLanes="750581380_0" intLanes=":410236808_0_0" shape="156.24,100.87 155.37,97.79 156.24,100.87">
        <request index="0" response="0" foes="0" cont="0"/>
    </junction>
    <junction id="7017915760" type="priority" x="42.61" y="0.00" incLanes="26614493_0" intLanes=":7017915760_0_0" shape="42.61,0.00 39.42,-0.04 42.61,0.00">
        <request index="0" response="0" foes="0" cont="0"/>
    </junction>
    <junction id="7018028306" type="priority" x="104.77" y="189.04" incLanes="-565524289_0" intLanes=":7018028306_0_0" shape="104.77,189.04 107.60,187.55 104.77,189.04">
        <request index="0" response="0" foes="0" cont="0"/>
    </junction>
    <junction id="7018268887" type="priority" x="0.00" y="153.16" incLanes="-750606420_0" intLanes=":7018268887_0_0" shape="0.00,153.16 1.32,156.08 0.00,153.16">
        <request index="0" response="0" foes="0" cont="0"/>
    </junction>

    <junction id=":236954110_16_0" type="internal" x="74.68" y="127.41" incLanes=":236954110_2_0 -26614493_0" intLanes=":236954110_5_0 :236954110_6_0 :236954110_7_0 :236954110_8_0 :236954110_9_0 :236954110_13_0 :236954110_14_0"/>
    <junction id=":236954110_17_0" type="internal" x="77.23" y="136.11" incLanes=":236954110_3_0 -26614493_0 -750581380_0 750606420_1" intLanes=":236954110_4_0 :236954110_9_0 :236954110_14_0"/>
    <junction id=":236954110_18_0" type="internal" x="75.52" y="122.97" incLanes=":236954110_6_0 750606420_0" intLanes=":236954110_1_0 :236954110_2_0 :236954110_9_0 :236954110_10_0 :236954110_11_0 :236954110_12_0 :236954110_13_0"/>
    <junction id=":236954110_19_0" type="internal" x="81.05" y="122.38" incLanes=":236954110_7_0 -26614493_0 565524289_1 750606420_0" intLanes=":236954110_2_0 :236954110_8_0 :236954110_13_0"/>
    <junction id=":236954110_20_0" type="internal" x="70.96" y="119.86" incLanes=":236954110_10_0 565524289_0" intLanes=":236954110_0_0 :236954110_1_0 :236954110_5_0 :236954110_6_0 :236954110_13_0 :236954110_14_0 :236954110_15_0"/>
    <junction id=":236954110_21_0" type="internal" x="69.50" y="114.99" incLanes=":236954110_11_0 -750581380_2 565524289_0 750606420_0" intLanes=":236954110_1_0 :236954110_6_0 :236954110_12_0"/>
    <junction id=":236954110_22_0" type="internal" x="68.51" y="125.42" incLanes=":236954110_14_0 -750581380_0 -750581380_1" intLanes=":236954110_1_0 :236954110_2_0 :236954110_3_0 :236954110_4_0 :236954110_5_0 :236954110_9_0 :236954110_10_0"/>
    <junction id=":236954110_23_0" type="internal" x="63.64" y="126.34" incLanes=":236954110_15_0 -26614493_1 -750581380_1 565524289_0" intLanes=":236954110_0_0 :236954110_5_0 :236954110_10_0"/>

    <connection from="-26614493" to="750581380" fromLane="0" toLane="0" keepClear="0" via=":236954110_8_0" tl="236954110" linkIndex="8" dir="r" state="O"/>
    <connection from="-26614493" to="-565524289" fromLane="0" toLane="0" keepClear="0" via=":236954110_9_0" tl="236954110" linkIndex="9" dir="s" state="O"/>
    <connection from="-26614493" to="-750606420" fromLane="1" toLane="0" keepClear="0" via=":236954110_10_0" tl="236954110" linkIndex="10" dir="l" state="o"/>
    <connection from="-26614493" to="26614493" fromLane="1" toLane="0" keepClear="0" via=":236954110_11_0" tl="236954110" linkIndex="11" dir="t" state="o"/>
    <connection from="-565524289" to="565524289" fromLane="0" toLane="1" via=":7018028306_0_0" dir="t" state="M"/>
    <connection from="-750581380" to="-565524289" fromLane="0" toLane="0" keepClear="0" via=":236954110_4_0" tl="236954110" linkIndex="4" dir="r" state="o"/>
    <connection from="-750581380" to="-750606420" fromLane="1" toLane="0" keepClear="0" via=":236954110_5_0" tl="236954110" linkIndex="5" dir="s" state="o"/>
    <connection from="-750581380" to="26614493" fromLane="2" toLane="0" keepClear="0" via=":236954110_6_0" tl="236954110" linkIndex="6" dir="l" state="o"/>
    <connection from="-750581380" to="750581380" fromLane="2" toLane="0" keepClear="0" via=":236954110_7_0" tl="236954110" linkIndex="7" dir="t" state="o"/>
    <connection from="-750606420" to="750606420" fromLane="0" toLane="1" via=":7018268887_0_0" dir="t" state="M"/>
    <connection from="26614493" to="-26614493" fromLane="0" toLane="1" via=":7017915760_0_0" dir="t" state="M"/>
    <connection from="565524289" to="-750606420" fromLane="0" toLane="0" keepClear="0" via=":236954110_0_0" tl="236954110" linkIndex="0" dir="r" state="O"/>
    <connection from="565524289" to="26614493" fromLane="0" toLane="0" keepClear="0" via=":236954110_1_0" tl="236954110" linkIndex="1" dir="s" state="O"/>
    <connection from="565524289" to="750581380" fromLane="1" toLane="0" keepClear="0" via=":236954110_2_0" tl="236954110" linkIndex="2" dir="l" state="o"/>
    <connection from="565524289" to="-565524289" fromLane="1" toLane="0" keepClear="0" via=":236954110_3_0" tl="236954110" linkIndex="3" dir="t" state="o"/>
    <connection from="750581380" to="-750581380" fromLane="0" toLane="2" via=":410236808_0_0" dir="t" state="M"/>
    <connection from="750606420" to="26614493" fromLane="0" toLane="0" keepClear="0" via=":236954110_12_0" tl="236954110" linkIndex="12" dir="r" state="o"/>
    <connection from="750606420" to="750581380" fromLane="0" toLane="0" keepClear="0" via=":236954110_13_0" tl="236954110" linkIndex="13" dir="s" state="o"/>
    <connection from="750606420" to="-565524289" fromLane="1" toLane="0" keepClear="0" via=":236954110_14_0" tl="236954110" linkIndex="14" dir="l" state="o"/>
    <connection from="750606420" to="-750606420" fromLane="1" toLane="0" keepClear="0" via=":236954110_15_0" tl="236954110" linkIndex="15" dir="t" state="o"/>

    <connection from=":236954110_0" to="-750606420" fromLane="0" toLane="0" dir="r" state="M"/>
    <connection from=":236954110_1" to="26614493" fromLane="0" toLane="0" dir="s" state="M"/>
    <connection from=":236954110_2" to="750581380" fromLane="0" toLane="0" via=":236954110_16_0" dir="l" state="m"/>
    <connection from=":236954110_16" to="750581380" fromLane="0" toLane="0" dir="l" state="M"/>
    <connection from=":236954110_3" to="-565524289" fromLane="0" toLane="0" via=":236954110_17_0" dir="t" state="m"/>
    <connection from=":236954110_17" to="-565524289" fromLane="0" toLane="0" dir="t" state="M"/>
    <connection from=":236954110_4" to="-565524289" fromLane="0" toLane="0" dir="r" state="M"/>
    <connection from=":236954110_5" to="-750606420" fromLane="0" toLane="0" dir="s" state="M"/>
    <connection from=":236954110_6" to="26614493" fromLane="0" toLane="0" via=":236954110_18_0" dir="l" state="m"/>
    <connection from=":236954110_18" to="26614493" fromLane="0" toLane="0" dir="l" state="M"/>
    <connection from=":236954110_7" to="750581380" fromLane="0" toLane="0" via=":236954110_19_0" dir="t" state="m"/>
    <connection from=":236954110_19" to="750581380" fromLane="0" toLane="0" dir="t" state="M"/>
    <connection from=":236954110_8" to="750581380" fromLane="0" toLane="0" dir="r" state="M"/>
    <connection from=":236954110_9" to="-565524289" fromLane="0" toLane="0" dir="s" state="M"/>
    <connection from=":236954110_10" to="-750606420" fromLane="0" toLane="0" via=":236954110_20_0" dir="l" state="m"/>
    <connection from=":236954110_20" to="-750606420" fromLane="0" toLane="0" dir="l" state="M"/>
    <connection from=":236954110_11" to="26614493" fromLane="0" toLane="0" via=":236954110_21_0" dir="t" state="m"/>
    <connection from=":236954110_21" to="26614493" fromLane="0" toLane="0" dir="t" state="M"/>
    <connection from=":236954110_12" to="26614493" fromLane="0" toLane="0" dir="r" state="M"/>
    <connection from=":236954110_13" to="750581380" fromLane="0" toLane="0" dir="s" state="M"/>
    <connection from=":236954110_14" to="-565524289" fromLane="0" toLane="0" via=":236954110_22_0" dir="l" state="m"/>
    <connection from=":236954110_22" to="-565524289" fromLane="0" toLane="0" dir="l" state="M"/>
    <connection from=":236954110_15" to="-750606420" fromLane="0" toLane="0" via=":236954110_23_0" dir="t" state="m"/>
    <connection from=":236954110_23" to="-750606420" fromLane="0" toLane="0" dir="t" state="M"/>
    <connection from=":410236808_0" to="-750581380" fromLane="0" toLane="2" dir="t" state="M"/>
    <connection from=":7017915760_0" to="-26614493" fromLane="0" toLane="1" dir="t" state="M"/>
    <connection from=":7018028306_0" to="565524289" fromLane="0" toLane="1" dir="t" state="M"/>
    <connection from=":7018268887_0" to="750606420" fromLane="0" toLane="1" dir="t" state="M"/>

</net>
