<?xml version="1.0" encoding="UTF-8"?>

<!-- generated on 2024-09-03 01:36:57 by Eclipse SUMO netconvert Version 1.20.0
<configuration xmlns:xsi="http://www.w3.org/2001/XMLSchema-instance" xsi:noNamespaceSchemaLocation="http://sumo.dlr.de/xsd/netconvertConfiguration.xsd">

    <input>
        <osm-files value="train_files/roundabout/easy/osm_files/map(51).osm"/>
    </input>

    <output>
        <output-file value="train_files/roundabout/easy/outputs/map(51)_dict/map(51)/map(51).net.xml"/>
    </output>

    <projection>
        <proj.utm value="true"/>
    </projection>

    <building_defaults>
        <default.junctions.keep-clear value="false"/>
    </building_defaults>

</configuration>
-->

<net version="1.20" junctionCornerDetail="5" limitTurnSpeed="5.50" xmlns:xsi="http://www.w3.org/2001/XMLSchema-instance" xsi:noNamespaceSchemaLocation="http://sumo.dlr.de/xsd/net_file.xsd">

    <location netOffset="-470446.35,-5413733.98" convBoundary="0.00,0.00,657.28,248.32" origBoundary="2.596935,48.875865,2.605901,48.878104" projParameter="+proj=utm +zone=31 +ellps=WGS84 +datum=WGS84 +units=m +no_defs"/>

    <type id="highway.cycleway" priority="1" numLanes="1" speed="5.56" allow="bicycle" oneway="0" width="2.00"/>
    <type id="highway.footway" priority="1" numLanes="1" speed="2.78" allow="pedestrian" oneway="1" width="2.00"/>
    <type id="highway.primary" priority="12" numLanes="2" speed="27.78" disallow="tram rail_urban rail rail_electric rail_fast ship container cable_car subway aircraft wheelchair scooter drone" oneway="0"/>
    <type id="highway.primary_link" priority="7" numLanes="1" speed="22.22" disallow="tram rail_urban rail rail_electric rail_fast ship container cable_car subway aircraft wheelchair scooter drone" oneway="0"/>
    <type id="highway.residential" priority="3" numLanes="1" speed="13.89" disallow="tram rail_urban rail rail_electric rail_fast ship container cable_car subway aircraft wheelchair scooter drone" oneway="0"/>
    <type id="highway.secondary" priority="11" numLanes="1" speed="27.78" disallow="tram rail_urban rail rail_electric rail_fast ship container cable_car subway aircraft wheelchair scooter drone" oneway="0"/>
    <type id="highway.service" priority="1" numLanes="1" speed="5.56" allow="pedestrian delivery bicycle" oneway="0"/>
    <type id="highway.tertiary" priority="10" numLanes="1" speed="22.22" disallow="tram rail_urban rail rail_electric rail_fast ship container cable_car subway aircraft wheelchair scooter drone" oneway="0"/>

    <edge id=":1295199002_0" function="internal">
        <lane id=":1295199002_0_0" index="0" disallow="tram rail_urban rail rail_electric rail_fast ship container cable_car subway aircraft wheelchair scooter drone" speed="22.22" length="2.89" shape="331.71,131.66 331.05,131.12 330.67,130.65 330.25,130.23 329.52,129.82"/>
    </edge>
    <edge id=":1295199002_1" function="internal">
        <lane id=":1295199002_1_0" index="0" disallow="tram rail_urban rail rail_electric rail_fast ship container cable_car subway aircraft wheelchair scooter drone" speed="3.65" length="1.44" shape="331.71,131.66 331.16,130.33"/>
    </edge>
    <edge id=":1295199002_4" function="internal">
        <lane id=":1295199002_4_0" index="0" disallow="tram rail_urban rail rail_electric rail_fast ship container cable_car subway aircraft wheelchair scooter drone" speed="3.65" length="3.23" shape="331.16,130.33 331.28,129.44 332.05,129.00 333.50,129.01"/>
    </edge>
    <edge id=":1295199002_2" function="internal">
        <lane id=":1295199002_2_0" index="0" disallow="tram rail_urban rail rail_electric rail_fast ship container cable_car subway aircraft wheelchair scooter drone" speed="22.22" length="4.06" shape="330.58,126.23 331.34,127.17 331.89,127.78 332.51,128.32 333.50,129.01"/>
    </edge>
    <edge id=":1295199002_3" function="internal">
        <lane id=":1295199002_3_0" index="0" disallow="tram rail_urban rail rail_electric rail_fast ship container cable_car subway aircraft wheelchair scooter drone" speed="4.79" length="3.10" shape="330.58,126.23 332.39,128.75"/>
    </edge>
    <edge id=":1295199002_5" function="internal">
        <lane id=":1295199002_5_0" index="0" disallow="tram rail_urban rail rail_electric rail_fast ship container cable_car subway aircraft wheelchair scooter drone" speed="4.79" length="4.96" shape="332.39,128.75 332.81,130.19 331.86,130.54 329.52,129.82"/>
    </edge>
    <edge id=":1295199060_0" function="internal">
        <lane id=":1295199060_0_0" index="0" disallow="tram rail_urban rail rail_electric rail_fast ship container cable_car subway aircraft wheelchair scooter drone" speed="5.47" length="10.61" shape="260.39,50.65 258.40,47.69 256.86,46.89 255.75,48.23 255.08,51.73"/>
    </edge>
    <edge id=":1295199060_1" function="internal">
        <lane id=":1295199060_1_0" index="0" disallow="tram rail_urban rail rail_electric rail_fast ship container cable_car subway aircraft wheelchair scooter drone" speed="13.89" length="18.83" shape="260.39,50.65 258.24,46.87 255.60,42.54 252.80,38.32 250.18,34.86"/>
    </edge>
    <edge id=":1295199060_2" function="internal">
        <lane id=":1295199060_2_0" index="0" disallow="tram rail_urban rail rail_electric rail_fast ship container cable_car subway aircraft wheelchair scooter drone" speed="13.29" length="16.93" shape="251.89,51.40 252.27,45.49 252.11,40.76 251.41,37.22 250.18,34.86"/>
    </edge>
    <edge id=":1295199060_3" function="internal">
        <lane id=":1295199060_3_0" index="0" disallow="tram rail_urban rail rail_electric rail_fast ship container cable_car subway aircraft wheelchair scooter drone" speed="3.65" length="4.67" shape="251.89,51.40 252.81,50.29 253.65,49.97 254.40,50.45 255.08,51.73"/>
    </edge>
    <edge id=":1295199067_0" function="internal">
        <lane id=":1295199067_0_0" index="0" allow="bicycle" speed="2.50" length="2.19" width="1.50" shape="462.82,228.99 462.26,229.37 461.85,229.40 461.57,229.09 461.43,228.43"/>
    </edge>
    <edge id=":1295199292_0" function="internal">
        <lane id=":1295199292_0_0" index="0" disallow="tram rail_urban rail rail_electric rail_fast ship container cable_car subway aircraft wheelchair scooter drone" speed="13.89" length="5.06" shape="264.47,58.15 262.05,53.71"/>
    </edge>
    <edge id=":1295199323_0" function="internal">
        <lane id=":1295199323_0_0" index="0" disallow="tram rail_urban rail rail_electric rail_fast ship container cable_car subway aircraft wheelchair scooter drone" speed="22.22" length="5.41" shape="273.23,55.62 275.99,60.27"/>
    </edge>
    <edge id=":1354991780_0" function="internal">
        <lane id=":1354991780_0_0" index="0" disallow="tram rail_urban rail rail_electric rail_fast ship container cable_car subway aircraft wheelchair scooter drone" speed="13.89" length="6.18" shape="254.71,99.86 256.44,99.27 257.57,98.72 258.62,98.02 260.14,96.98"/>
    </edge>
    <edge id=":1354991781_0" function="internal">
        <lane id=":1354991781_0_0" index="0" disallow="tram rail_urban rail rail_electric rail_fast ship container cable_car subway aircraft wheelchair scooter drone" speed="9.43" length="6.11" shape="261.87,95.84 263.42,94.89 264.50,94.16 265.29,93.22 265.99,91.61"/>
    </edge>
    <edge id=":1354991781_1" function="internal">
        <lane id=":1354991781_1_0" index="0" disallow="tram rail_urban rail rail_electric rail_fast ship container cable_car subway aircraft wheelchair scooter drone" speed="11.50" length="6.09" shape="265.49,97.95 265.14,96.07 265.10,94.74 265.39,93.43 265.99,91.61"/>
        <lane id=":1354991781_1_1" index="1" disallow="tram rail_urban rail rail_electric rail_fast ship container cable_car subway aircraft wheelchair scooter drone" speed="10.76" length="6.09" shape="268.82,98.18 268.47,96.54 268.36,95.37 268.53,94.23 269.02,92.63"/>
    </edge>
    <edge id=":1354991896_0" function="internal">
        <lane id=":1354991896_0_0" index="0" disallow="tram rail_urban rail rail_electric rail_fast ship container cable_car subway aircraft wheelchair scooter drone" speed="5.19" length="7.29" shape="250.35,96.36 250.28,98.51 250.96,99.82 252.37,100.29 254.52,99.92"/>
    </edge>
    <edge id=":1354991896_1" function="internal">
        <lane id=":1354991896_1_0" index="0" disallow="tram rail_urban rail rail_electric rail_fast ship container cable_car subway aircraft wheelchair scooter drone" speed="3.65" length="4.67" shape="250.35,96.36 249.36,97.41 248.50,97.67 247.78,97.15 247.19,95.83"/>
    </edge>
    <edge id=":1354991896_2" function="internal">
        <lane id=":1354991896_2_0" index="0" disallow="tram rail_urban rail rail_electric rail_fast ship container cable_car subway aircraft wheelchair scooter drone" speed="7.53" length="9.70" shape="241.04,102.36 243.36,101.72 245.16,100.41 246.43,98.45 247.19,95.83"/>
    </edge>
    <edge id=":1354991896_3" function="internal">
        <lane id=":1354991896_3_0" index="0" disallow="tram rail_urban rail rail_electric rail_fast ship container cable_car subway aircraft wheelchair scooter drone" speed="13.89" length="13.72" shape="241.04,102.36 244.57,101.93 247.85,101.47 251.10,100.84 254.52,99.92"/>
    </edge>
    <edge id=":1354991920_0" function="internal">
        <lane id=":1354991920_0_0" index="0" disallow="tram rail_urban rail rail_electric rail_fast ship container cable_car subway aircraft wheelchair scooter drone" speed="13.89" length="5.49" shape="258.55,105.72 256.96,105.39 255.85,105.25 254.73,105.26 253.10,105.40"/>
    </edge>
    <edge id=":2382489847_0" function="internal">
        <lane id=":2382489847_0_0" index="0" disallow="tram rail_urban rail rail_electric rail_fast ship container cable_car subway aircraft wheelchair scooter drone" speed="22.22" length="5.08" shape="317.19,66.31 321.54,63.68"/>
    </edge>
    <edge id=":2382494757_0" function="internal">
        <lane id=":2382494757_0_0" index="0" allow="bicycle" speed="3.84" length="3.50" width="1.50" shape="321.62,131.34 321.65,132.39 321.98,133.11 322.61,133.49 323.53,133.53"/>
    </edge>
    <edge id=":2382494757_1" function="internal">
        <lane id=":2382494757_1_0" index="0" allow="bicycle" speed="2.50" length="2.20" width="1.50" shape="321.62,131.34 321.19,131.87 320.80,132.02 320.44,131.80 320.11,131.20"/>
    </edge>
    <edge id=":2382494757_2" function="internal">
        <lane id=":2382494757_2_0" index="0" allow="bicycle" speed="4.44" length="3.66" width="1.50" shape="317.67,133.27 318.66,133.23 319.40,132.87 319.89,132.19 320.11,131.20"/>
    </edge>
    <edge id=":2382494757_3" function="internal">
        <lane id=":2382494757_3_0" index="0" disallow="tram rail_urban rail rail_electric rail_fast ship container cable_car subway aircraft wheelchair scooter drone" speed="13.89" length="6.08" shape="317.59,134.12 319.38,134.34 320.61,134.50 321.84,134.53 323.63,134.38"/>
    </edge>
    <edge id=":2382494761_0" function="internal">
        <lane id=":2382494761_0_0" index="0" allow="pedestrian delivery bicycle" speed="3.65" length="4.67" shape="308.11,170.37 309.55,170.45 310.30,170.94 310.36,171.83 309.73,173.13"/>
    </edge>
    <edge id=":2382494764_0" function="internal">
        <lane id=":2382494764_0_0" index="0" disallow="tram rail_urban rail rail_electric rail_fast ship container cable_car subway aircraft wheelchair scooter drone" speed="7.38" length="10.13" shape="244.99,106.11 242.63,106.72 240.84,108.10 239.63,110.24 238.99,113.15"/>
    </edge>
    <edge id=":2382494764_1" function="internal">
        <lane id=":2382494764_1_0" index="0" disallow="tram rail_urban rail rail_electric rail_fast ship container cable_car subway aircraft wheelchair scooter drone" speed="13.89" length="14.54" shape="244.99,106.11 230.51,107.45"/>
    </edge>
    <edge id=":2382494764_2" function="internal">
        <lane id=":2382494764_2_0" index="0" disallow="tram rail_urban rail rail_electric rail_fast ship container cable_car subway aircraft wheelchair scooter drone" speed="6.11" length="9.06" shape="235.80,112.80 235.71,110.25 234.80,108.50 233.06,107.57 230.51,107.45"/>
    </edge>
    <edge id=":2382494764_3" function="internal">
        <lane id=":2382494764_3_0" index="0" disallow="tram rail_urban rail rail_electric rail_fast ship container cable_car subway aircraft wheelchair scooter drone" speed="3.65" length="4.67" shape="235.80,112.80 236.73,111.70 237.57,111.38 238.32,111.87 238.99,113.15"/>
    </edge>
    <edge id=":2382494767_0" function="internal">
        <lane id=":2382494767_0_0" index="0" disallow="tram rail_urban rail rail_electric rail_fast ship container cable_car subway aircraft wheelchair scooter drone" speed="13.89" length="2.75" shape="238.36,119.02 238.06,121.75"/>
    </edge>
    <edge id=":2382494767_1" function="internal">
        <lane id=":2382494767_1_0" index="0" disallow="tram rail_urban rail rail_electric rail_fast ship container cable_car subway aircraft wheelchair scooter drone" speed="13.89" length="2.74" shape="234.88,121.41 235.17,118.68"/>
    </edge>
    <edge id=":2382494771_0" function="internal">
        <lane id=":2382494771_0_0" index="0" disallow="tram rail_urban rail rail_electric rail_fast ship container cable_car subway aircraft wheelchair scooter drone" speed="13.89" length="4.56" shape="238.86,114.29 238.38,118.82"/>
    </edge>
    <edge id=":2382494771_1" function="internal">
        <lane id=":2382494771_1_0" index="0" allow="pedestrian bicycle" speed="6.27" length="1.95" width="1.50" shape="238.86,114.29 238.30,115.85 238.07,116.03"/>
    </edge>
    <edge id=":2382494771_7" function="internal">
        <lane id=":2382494771_7_0" index="0" allow="pedestrian bicycle" speed="6.27" length="6.24" width="1.50" shape="238.07,116.03 237.00,116.88 234.96,117.39 232.18,117.37"/>
    </edge>
    <edge id=":2382494771_2" function="internal">
        <lane id=":2382494771_2_0" index="0" allow="pedestrian bicycle" speed="4.55" length="4.37" width="1.50" shape="232.32,115.87 233.70,115.86 234.72,115.53 235.38,114.89 235.68,113.94"/>
    </edge>
    <edge id=":2382494771_3" function="internal">
        <lane id=":2382494771_3_0" index="0" allow="pedestrian bicycle" speed="5.69" length="7.31" width="1.50" shape="232.32,115.87 235.06,116.27 236.99,116.89 238.09,117.74 238.38,118.82"/>
    </edge>
    <edge id=":2382494771_4" function="internal">
        <lane id=":2382494771_4_0" index="0" allow="pedestrian bicycle" speed="2.50" length="2.19" width="1.50" shape="232.32,115.87 232.84,116.30 233.00,116.69 232.78,117.04 232.18,117.37"/>
    </edge>
    <edge id=":2382494771_5" function="internal">
        <lane id=":2382494771_5_0" index="0" allow="pedestrian bicycle" speed="4.32" length="3.45" width="1.50" shape="235.20,118.48 234.91,117.90 234.10,117.58 233.09,117.44 232.18,117.37"/>
    </edge>
    <edge id=":2382494771_6" function="internal">
        <lane id=":2382494771_6_0" index="0" disallow="tram rail_urban rail rail_electric rail_fast ship container cable_car subway aircraft wheelchair scooter drone" speed="13.89" length="4.56" shape="235.20,118.48 235.68,113.94"/>
    </edge>
    <edge id=":2382494779_0" function="internal">
        <lane id=":2382494779_0_0" index="0" disallow="tram rail_urban rail rail_electric rail_fast ship container cable_car subway aircraft wheelchair scooter drone" speed="6.18" length="8.11" shape="238.04,121.95 238.18,123.92 239.08,125.40 240.74,126.40 243.16,126.91"/>
    </edge>
    <edge id=":2382494779_1" function="internal">
        <lane id=":2382494779_1_0" index="0" allow="pedestrian delivery bicycle" speed="9.72" length="7.51" shape="238.04,121.95 237.20,129.42"/>
    </edge>
    <edge id=":2382494779_2" function="internal">
        <lane id=":2382494779_2_0" index="0" disallow="tram rail_urban rail rail_electric rail_fast ship container cable_car subway aircraft wheelchair scooter drone" speed="3.65" length="1.44" shape="238.04,121.95 237.12,123.06"/>
    </edge>
    <edge id=":2382494779_6" function="internal">
        <lane id=":2382494779_6_0" index="0" disallow="tram rail_urban rail rail_electric rail_fast ship container cable_car subway aircraft wheelchair scooter drone" speed="3.65" length="3.23" shape="237.12,123.06 236.28,123.37 235.53,122.88 234.86,121.61"/>
    </edge>
    <edge id=":2382494779_3" function="internal">
        <lane id=":2382494779_3_0" index="0" allow="pedestrian delivery bicycle" speed="9.72" length="7.48" shape="234.03,129.04 234.86,121.61"/>
    </edge>
    <edge id=":2382494779_4" function="internal">
        <lane id=":2382494779_4_0" index="0" allow="pedestrian delivery bicycle" speed="6.88" length="1.43" shape="234.03,129.04 234.73,127.79"/>
    </edge>
    <edge id=":2382494779_5" function="internal">
        <lane id=":2382494779_5_0" index="0" allow="pedestrian delivery bicycle" speed="3.65" length="1.44" shape="234.03,129.04 234.96,127.94"/>
    </edge>
    <edge id=":2382494779_7" function="internal">
        <lane id=":2382494779_7_0" index="0" allow="pedestrian delivery bicycle" speed="6.88" length="8.61" shape="234.73,127.79 236.49,127.02 239.29,126.73 243.16,126.91"/>
    </edge>
    <edge id=":2382494779_8" function="internal">
        <lane id=":2382494779_8_0" index="0" allow="pedestrian delivery bicycle" speed="3.65" length="3.23" shape="234.96,127.94 235.80,127.64 236.55,128.13 237.20,129.42"/>
    </edge>
    <edge id=":2382494781_0" function="internal">
        <lane id=":2382494781_0_0" index="0" allow="pedestrian bicycle" speed="8.16" length="6.64" width="1.50" shape="222.44,116.50 219.97,116.34 218.06,116.37 216.70,116.57 215.90,116.96"/>
    </edge>
    <edge id=":2382494781_1" function="internal">
        <lane id=":2382494781_1_0" index="0" allow="pedestrian bicycle" speed="5.56" length="10.01" width="1.50" shape="222.44,116.50 212.45,115.78"/>
    </edge>
    <edge id=":2382494781_2" function="internal">
        <lane id=":2382494781_2_0" index="0" allow="pedestrian bicycle" speed="2.50" length="2.19" width="1.50" shape="222.44,116.50 221.91,116.07 221.76,115.68 221.98,115.32 222.57,115.00"/>
    </edge>
    <edge id=":2382494781_3" function="internal">
        <lane id=":2382494781_3_0" index="0" allow="pedestrian bicycle" speed="4.23" length="4.90" width="1.50" shape="220.78,112.21 220.00,113.29 220.03,114.12 220.89,114.69 222.57,115.00"/>
    </edge>
    <edge id=":2382494781_4" function="internal">
        <lane id=":2382494781_4_0" index="0" disallow="tram rail_urban rail rail_electric rail_fast ship container cable_car subway aircraft wheelchair scooter drone" speed="13.89" length="6.81" shape="220.78,112.21 215.90,116.96"/>
    </edge>
    <edge id=":2382494781_5" function="internal">
        <lane id=":2382494781_5_0" index="0" allow="pedestrian bicycle" speed="9.62" length="9.34" width="1.50" shape="220.78,112.21 218.84,113.87 216.81,115.01 214.67,115.65 212.45,115.78"/>
    </edge>
    <edge id=":2382494781_6" function="internal">
        <lane id=":2382494781_6_0" index="0" allow="pedestrian bicycle" speed="5.56" length="10.06" width="1.50" shape="212.53,114.28 222.57,115.00"/>
    </edge>
    <edge id=":2382494781_7" function="internal">
        <lane id=":2382494781_7_0" index="0" allow="pedestrian bicycle" speed="4.25" length="6.08" width="1.50" shape="212.53,114.28 214.97,114.57 216.35,115.12 216.66,115.91 215.90,116.96"/>
    </edge>
    <edge id=":2382494781_8" function="internal">
        <lane id=":2382494781_8_0" index="0" allow="pedestrian bicycle" speed="2.50" length="2.19" width="1.50" shape="212.53,114.28 213.07,114.69 213.24,115.07 213.03,115.44 212.45,115.78"/>
    </edge>
    <edge id=":2382494782_0" function="internal">
        <lane id=":2382494782_0_0" index="0" allow="pedestrian bicycle" speed="2.50" length="2.19" width="1.50" shape="0.67,137.61 0.08,137.94 -0.34,137.94 -0.59,137.60 -0.67,136.93"/>
    </edge>
    <edge id=":2386921297_0" function="internal">
        <lane id=":2386921297_0_0" index="0" disallow="tram rail_urban rail rail_electric rail_fast ship container cable_car subway aircraft wheelchair scooter drone" speed="10.04" length="7.57" shape="227.05,107.78 224.94,108.21 223.66,109.01 222.57,110.24 221.06,111.93"/>
    </edge>
    <edge id=":2386921297_1" function="internal">
        <lane id=":2386921297_1_0" index="0" disallow="tram rail_urban rail rail_electric rail_fast ship container cable_car subway aircraft wheelchair scooter drone" speed="13.89" length="8.04" shape="227.05,107.78 219.05,108.58"/>
    </edge>
    <edge id=":2386921304_0" function="internal">
        <lane id=":2386921304_0_0" index="0" disallow="tram rail_urban rail rail_electric rail_fast ship container cable_car subway aircraft wheelchair scooter drone" speed="22.22" length="3.94" shape="321.68,117.45 324.84,119.80"/>
    </edge>
    <edge id=":2386921308_0" function="internal">
        <lane id=":2386921308_0_0" index="0" allow="bicycle" speed="4.64" length="4.23" width="1.50" shape="328.90,119.36 328.33,120.19 328.19,121.11 328.47,122.09 329.16,123.16"/>
    </edge>
    <edge id=":2386921308_1" function="internal">
        <lane id=":2386921308_1_0" index="0" allow="bicycle" speed="5.56" length="6.07" width="1.50" shape="328.90,119.36 327.65,120.66 326.84,121.59 326.09,122.57 325.05,124.04"/>
    </edge>
    <edge id=":2386921308_2" function="internal">
        <lane id=":2386921308_2_0" index="0" allow="bicycle" speed="2.50" length="2.19" width="1.50" shape="328.90,119.36 328.24,119.50 327.84,119.38 327.70,118.98 327.82,118.32"/>
    </edge>
    <edge id=":2386921308_3" function="internal">
        <lane id=":2386921308_3_0" index="0" allow="bicycle" speed="4.07" length="2.73" width="1.50" shape="325.54,119.27 326.12,119.49 326.71,119.30 327.28,118.86 327.82,118.32"/>
    </edge>
    <edge id=":2386921308_4" function="internal">
        <lane id=":2386921308_4_0" index="0" disallow="tram rail_urban rail rail_electric rail_fast ship container cable_car subway aircraft wheelchair scooter drone" speed="22.22" length="5.17" shape="325.00,119.92 326.15,120.93 326.88,121.68 327.54,122.50 328.50,123.70"/>
    </edge>
    <edge id=":2386921308_5" function="internal">
        <lane id=":2386921308_5_0" index="0" allow="bicycle" speed="4.69" length="3.94" width="1.50" shape="324.46,120.58 325.21,121.39 325.56,122.24 325.51,123.12 325.05,124.04"/>
    </edge>
    <edge id=":2386921308_6" function="internal">
        <lane id=":2386921308_6_0" index="0" allow="bicycle" speed="5.56" length="6.31" width="1.50" shape="323.82,123.18 324.90,121.65 325.68,120.63 326.53,119.67 327.82,118.32"/>
    </edge>
    <edge id=":2386921308_7" function="internal">
        <lane id=":2386921308_7_0" index="0" allow="bicycle" speed="4.99" length="6.56" width="1.50" shape="323.82,123.18 325.08,121.86 326.39,121.42 327.75,121.85 329.16,123.16"/>
    </edge>
    <edge id=":2386921308_8" function="internal">
        <lane id=":2386921308_8_0" index="0" allow="bicycle" speed="2.50" length="2.19" width="1.50" shape="323.82,123.18 324.45,122.94 324.87,123.00 325.07,123.37 325.05,124.04"/>
    </edge>
    <edge id=":2386921315_0" function="internal">
        <lane id=":2386921315_0_0" index="0" disallow="tram rail_urban rail rail_electric rail_fast ship container cable_car subway aircraft wheelchair scooter drone" speed="22.22" length="3.91" shape="321.05,125.14 317.69,123.13"/>
    </edge>
    <edge id=":2386921319_0" function="internal">
        <lane id=":2386921319_0_0" index="0" allow="bicycle" speed="3.94" length="3.54" width="1.50" shape="324.23,128.01 323.25,127.60 322.52,127.66 322.04,128.20 321.81,129.20"/>
    </edge>
    <edge id=":2386921319_1" function="internal">
        <lane id=":2386921319_1_0" index="0" disallow="tram rail_urban rail rail_electric rail_fast ship container cable_car subway aircraft wheelchair scooter drone" speed="22.22" length="3.99" shape="324.66,127.27 321.22,125.24"/>
    </edge>
    <edge id=":2386921319_2" function="internal">
        <lane id=":2386921319_2_0" index="0" allow="bicycle" speed="4.49" length="4.00" width="1.50" shape="325.09,126.54 324.04,125.78 323.46,124.99 323.35,124.18 323.71,123.35"/>
    </edge>
    <edge id=":2386921319_3" function="internal">
        <lane id=":2386921319_3_0" index="0" allow="bicycle" speed="5.56" length="6.05" width="1.50" shape="324.94,124.21 323.77,125.59 322.83,126.51 322.17,127.52 321.81,129.20"/>
    </edge>
    <edge id=":2386921319_4" function="internal">
        <lane id=":2386921319_4_0" index="0" allow="bicycle" speed="4.93" length="5.01" width="1.50" shape="324.94,124.21 323.89,125.44 322.85,126.15 321.81,126.32 320.78,125.97"/>
    </edge>
    <edge id=":2386921319_5" function="internal">
        <lane id=":2386921319_5_0" index="0" allow="bicycle" speed="2.50" length="2.19" width="1.50" shape="324.94,124.21 324.31,124.45 323.89,124.39 323.69,124.02 323.71,123.35"/>
    </edge>
    <edge id=":2386921319_6" function="internal">
        <lane id=":2386921319_6_0" index="0" allow="bicycle" speed="3.75" length="2.78" width="1.50" shape="320.50,128.47 320.87,127.79 321.14,127.09 321.17,126.46 320.78,125.97"/>
    </edge>
    <edge id=":2386921319_7" function="internal">
        <lane id=":2386921319_7_0" index="0" allow="bicycle" speed="5.56" length="6.06" width="1.50" shape="320.50,128.47 321.38,126.91 322.00,125.85 322.68,124.82 323.71,123.35"/>
    </edge>
    <edge id=":2386921319_8" function="internal">
        <lane id=":2386921319_8_0" index="0" allow="bicycle" speed="2.64" length="2.19" width="1.50" shape="320.50,128.47 321.10,128.16 321.52,128.18 321.75,128.53 321.81,129.20"/>
    </edge>
    <edge id=":2386921322_0" function="internal">
        <lane id=":2386921322_0_0" index="0" disallow="tram rail_urban rail rail_electric rail_fast ship container cable_car subway aircraft wheelchair scooter drone" speed="22.22" length="5.10" shape="329.34,129.74 327.95,129.14 327.03,128.67 326.13,128.15 324.83,127.37"/>
    </edge>
    <edge id=":2386921322_1" function="internal">
        <lane id=":2386921322_1_0" index="0" disallow="tram rail_urban rail rail_electric rail_fast ship container cable_car subway aircraft wheelchair scooter drone" speed="5.48" length="7.69" shape="325.96,133.39 327.30,131.83 327.56,130.30 326.74,128.82 324.83,127.37"/>
    </edge>
    <edge id=":247643300_0" function="internal">
        <lane id=":247643300_0_0" index="0" disallow="tram rail_urban rail rail_electric rail_fast ship container cable_car subway aircraft wheelchair scooter drone" speed="16.17" length="10.77" shape="292.88,75.60 296.04,76.08 298.29,76.03 300.47,75.51 303.41,74.59"/>
    </edge>
    <edge id=":247643300_1" function="internal">
        <lane id=":247643300_1_0" index="0" disallow="tram rail_urban rail rail_electric rail_fast ship container cable_car subway aircraft wheelchair scooter drone" speed="12.14" length="10.79" shape="292.88,75.60 296.14,76.31 298.35,77.14 300.19,78.56 302.35,81.07"/>
        <lane id=":247643300_1_1" index="1" disallow="tram rail_urban rail rail_electric rail_fast ship container cable_car subway aircraft wheelchair scooter drone" speed="11.55" length="10.79" shape="292.24,78.73 295.16,79.43 297.08,80.29 298.68,81.69 300.60,84.01"/>
    </edge>
    <edge id=":247643482_0" function="internal">
        <lane id=":247643482_0_0" index="0" disallow="tram rail_urban rail rail_electric rail_fast ship container cable_car subway aircraft wheelchair scooter drone" speed="11.52" length="11.58" shape="313.38,86.87 311.07,89.14 309.73,91.00 309.04,93.17 308.66,96.38"/>
        <lane id=":247643482_0_1" index="1" disallow="tram rail_urban rail rail_electric rail_fast ship container cable_car subway aircraft wheelchair scooter drone" speed="14.28" length="11.58" shape="310.43,85.39 308.16,88.18 306.75,90.27 305.93,92.60 305.47,96.11"/>
    </edge>
    <edge id=":247643482_2" function="internal">
        <lane id=":247643482_2_0" index="0" disallow="tram rail_urban rail rail_electric rail_fast ship container cable_car subway aircraft wheelchair scooter drone" speed="11.81" length="11.52" shape="305.58,85.12 307.66,87.98 308.67,90.28 308.90,92.81 308.66,96.38"/>
        <lane id=":247643482_2_1" index="1" disallow="tram rail_urban rail rail_electric rail_fast ship container cable_car subway aircraft wheelchair scooter drone" speed="11.18" length="11.52" shape="302.32,86.17 304.25,88.71 305.28,90.72 305.62,92.94 305.47,96.11"/>
    </edge>
    <edge id=":247643484_0" function="internal">
        <lane id=":247643484_0_0" index="0" disallow="tram rail_urban rail rail_electric rail_fast ship container cable_car subway aircraft wheelchair scooter drone" speed="8.31" length="5.79" shape="308.22,101.59 308.21,103.25 308.55,104.37 309.25,105.38 310.34,106.71"/>
    </edge>
    <edge id=":247643484_1" function="internal">
        <lane id=":247643484_1_0" index="0" disallow="tram rail_urban rail rail_electric rail_fast ship container cable_car subway aircraft wheelchair scooter drone" speed="22.57" length="5.68" shape="308.22,101.59 307.94,103.37 307.47,104.52 306.83,105.63 306.00,107.27"/>
        <lane id=":247643484_1_1" index="1" disallow="tram rail_urban rail rail_electric rail_fast ship container cable_car subway aircraft wheelchair scooter drone" speed="9.53" length="5.68" shape="305.03,101.32 304.86,102.83 304.56,103.86 304.01,104.77 303.07,105.98"/>
    </edge>
    <edge id=":247643487_0" function="internal">
        <lane id=":247643487_0_0" index="0" disallow="tram rail_urban rail rail_electric rail_fast ship container cable_car subway aircraft wheelchair scooter drone" speed="9.51" length="5.85" shape="303.19,116.05 301.55,115.47 300.37,115.10 299.19,115.07 297.55,115.49"/>
    </edge>
    <edge id=":247643487_1" function="internal">
        <lane id=":247643487_1_0" index="0" disallow="tram rail_urban rail rail_electric rail_fast ship container cable_car subway aircraft wheelchair scooter drone" speed="10.77" length="5.78" shape="302.47,111.83 301.30,113.27 300.38,114.19 299.27,114.84 297.55,115.49"/>