<?xml version="1.0" encoding="UTF-8"?>

<!-- generated on 2024-09-03 01:37:03 by Eclipse SUMO netconvert Version 1.20.0
<configuration xmlns:xsi="http://www.w3.org/2001/XMLSchema-instance" xsi:noNamespaceSchemaLocation="http://sumo.dlr.de/xsd/netconvertConfiguration.xsd">

    <input>
        <osm-files value="train_files/roundabout/easy/osm_files/map(90).osm"/>
    </input>

    <output>
        <output-file value="train_files/roundabout/easy/outputs/map(90)_dict/map(90)/map(90).net.xml"/>
    </output>

    <projection>
        <proj.utm value="true"/>
    </projection>

    <building_defaults>
        <default.junctions.keep-clear value="false"/>
    </building_defaults>

</configuration>
-->

<net version="1.20" junctionCornerDetail="5" limitTurnSpeed="5.50" xmlns:xsi="http://www.w3.org/2001/XMLSchema-instance" xsi:noNamespaceSchemaLocation="http://sumo.dlr.de/xsd/net_file.xsd">

    <location netOffset="-540462.35,-5972762.67" convBoundary="0.00,0.00,1424.32,1155.41" origBoundary="27.615912,53.901692,27.637630,53.912005" projParameter="+proj=utm +zone=35 +ellps=WGS84 +datum=WGS84 +units=m +no_defs"/>

    <type id="highway.footway" priority="1" numLanes="1" speed="2.78" allow="pedestrian" oneway="1" width="2.00"/>
    <type id="highway.path" priority="1" numLanes="1" speed="5.56" allow="pedestrian bicycle" oneway="0" width="2.00"/>
    <type id="highway.primary" priority="12" numLanes="2" speed="27.78" disallow="tram rail_urban rail rail_electric rail_fast ship container cable_car subway aircraft wheelchair scooter drone" oneway="0"/>
    <type id="highway.residential" priority="3" numLanes="1" speed="13.89" disallow="tram rail_urban rail rail_electric rail_fast ship container cable_car subway aircraft wheelchair scooter drone" oneway="0"/>
    <type id="highway.service" priority="1" numLanes="1" speed="5.56" allow="pedestrian delivery bicycle" oneway="0"/>
    <type id="highway.tertiary" priority="10" numLanes="1" speed="22.22" disallow="tram rail_urban rail rail_electric rail_fast ship container cable_car subway aircraft wheelchair scooter drone" oneway="0"/>

    <edge id=":1777147927_0" function="internal">
        <lane id=":1777147927_0_0" index="0" disallow="tram rail_urban rail rail_electric rail_fast ship container cable_car subway aircraft wheelchair scooter drone" speed="13.89" length="4.69" shape="1002.12,735.53 997.93,737.64"/>
    </edge>
    <edge id=":1777147927_1" function="internal">
        <lane id=":1777147927_1_0" index="0" disallow="tram rail_urban rail rail_electric rail_fast ship container cable_car subway aircraft wheelchair scooter drone" speed="13.89" length="4.81" shape="996.45,734.80 1000.75,732.64"/>
    </edge>
    <edge id=":2161298597_0" function="internal">
        <lane id=":2161298597_0_0" index="0" disallow="pedestrian tram rail_urban rail rail_electric rail_fast ship container cable_car subway aircraft wheelchair scooter drone" speed="7.16" length="6.96" shape="1096.98,473.08 1098.64,473.30 1100.24,473.03 1101.78,472.26 1103.26,471.00"/>
        <lane id=":2161298597_0_1" index="1" disallow="pedestrian tram rail_urban rail rail_electric rail_fast ship container cable_car subway aircraft wheelchair scooter drone" speed="8.01" length="8.86" shape="1096.98,473.08 1100.09,473.80 1102.56,474.07 1104.38,473.88 1105.56,473.22"/>
    </edge>
    <edge id=":2161298597_2" function="internal">
        <lane id=":2161298597_2_0" index="0" disallow="pedestrian tram rail_urban rail rail_electric rail_fast ship container cable_car subway aircraft wheelchair scooter drone" speed="16.67" length="9.21" shape="1096.62,475.46 1098.70,474.27 1100.17,473.51 1101.53,472.61 1103.26,471.00"/>
        <lane id=":2161298597_2_1" index="1" disallow="pedestrian tram rail_urban rail rail_electric rail_fast ship container cable_car subway aircraft wheelchair scooter drone" speed="16.67" length="9.21" shape="1098.33,478.17 1100.59,476.86 1102.20,476.00 1103.67,475.00 1105.56,473.22"/>
        <lane id=":2161298597_2_2" index="2" disallow="pedestrian tram rail_urban rail rail_electric rail_fast ship container cable_car subway aircraft wheelchair scooter drone" speed="16.67" length="9.21" shape="1100.03,480.88 1102.49,479.44 1104.22,478.50 1105.82,477.38 1107.87,475.44"/>
        <lane id=":2161298597_2_3" index="3" disallow="pedestrian tram rail_urban rail rail_electric rail_fast ship container cable_car subway aircraft wheelchair scooter drone" speed="16.67" length="9.21" shape="1101.73,483.59 1104.39,482.03 1106.25,480.99 1107.96,479.76 1110.18,477.65"/>
    </edge>
    <edge id=":275054777_0" function="internal">
        <lane id=":275054777_0_0" index="0" disallow="pedestrian tram rail_urban rail rail_electric rail_fast ship container cable_car subway aircraft wheelchair scooter drone" speed="16.67" length="21.17" shape="1020.94,619.73 1015.10,640.08"/>
        <lane id=":275054777_0_1" index="1" disallow="pedestrian tram rail_urban rail rail_electric rail_fast ship container cable_car subway aircraft wheelchair scooter drone" speed="16.67" length="21.42" shape="1017.82,619.00 1011.93,639.60"/>
    </edge>
    <edge id=":275054777_2" function="internal">
        <lane id=":275054777_2_0" index="0" disallow="pedestrian tram rail_urban rail rail_electric rail_fast ship container cable_car subway aircraft wheelchair scooter drone" speed="16.67" length="21.73" shape="1017.82,619.00 1016.12,625.30 1014.17,629.41 1011.21,632.93 1006.45,637.46"/>
        <lane id=":275054777_2_1" index="1" disallow="pedestrian tram rail_urban rail rail_electric rail_fast ship container cable_car subway aircraft wheelchair scooter drone" speed="16.67" length="21.73" shape="1014.71,618.28 1012.99,624.39 1010.97,628.32 1007.96,631.69 1003.25,636.08"/>
        <lane id=":275054777_2_2" index="2" disallow="pedestrian tram rail_urban rail rail_electric rail_fast ship container cable_car subway aircraft wheelchair scooter drone" speed="16.67" length="21.73" shape="1011.59,617.55 1009.86,623.48 1007.76,627.24 1004.70,630.44 1000.05,634.69"/>
    </edge>
    <edge id=":275054801_0" function="internal">
        <lane id=":275054801_0_0" index="0" allow="pedestrian delivery bicycle" speed="3.65" length="4.67" shape="1067.44,654.83 1066.71,653.59 1066.70,652.70 1067.41,652.15 1068.83,651.95"/>
    </edge>
    <edge id=":275054812_0" function="internal">
        <lane id=":275054812_0_0" index="0" disallow="tram rail_urban rail rail_electric rail_fast ship container cable_car subway aircraft wheelchair scooter drone" speed="7.09" length="3.05" shape="1003.88,487.83 1003.27,488.48 1002.77,488.87 1002.19,489.11 1001.32,489.32"/>
    </edge>
    <edge id=":275054812_1" function="internal">
        <lane id=":275054812_1_0" index="0" disallow="tram rail_urban rail rail_electric rail_fast ship container cable_car subway aircraft wheelchair scooter drone" speed="4.44" length="1.02" shape="1000.64,486.19 1000.93,486.12 1001.13,486.04 1001.29,485.91 1001.50,485.69"/>
    </edge>
    <edge id=":275054843_0" function="internal">
        <lane id=":275054843_0_0" index="0" disallow="pedestrian tram rail_urban rail rail_electric rail_fast ship container cable_car subway aircraft wheelchair scooter drone" speed="16.67" length="27.61" shape="1033.84,586.88 1029.73,593.72 1027.00,598.50 1024.96,603.57 1022.92,611.23"/>
        <lane id=":275054843_0_1" index="1" disallow="pedestrian tram rail_urban rail rail_electric rail_fast ship container cable_car subway aircraft wheelchair scooter drone" speed="16.67" length="27.61" shape="1030.84,585.67 1026.67,592.64 1023.92,597.53 1021.87,602.69 1019.81,610.50"/>
        <lane id=":275054843_0_2" index="2" disallow="pedestrian tram rail_urban rail rail_electric rail_fast ship container cable_car subway aircraft wheelchair scooter drone" speed="16.67" length="27.61" shape="1027.84,584.46 1023.60,591.56 1020.83,596.55 1018.78,601.82 1016.69,609.78"/>
        <lane id=":275054843_0_3" index="3" disallow="pedestrian tram rail_urban rail rail_electric rail_fast ship container cable_car subway aircraft wheelchair scooter drone" speed="16.67" length="27.61" shape="1024.84,583.25 1020.54,590.49 1017.75,595.57 1015.69,600.95 1013.57,609.05"/>
    </edge>
    <edge id=":275054843_4" function="internal">
        <lane id=":275054843_4_0" index="0" disallow="pedestrian tram rail_urban rail rail_electric rail_fast ship container cable_car subway aircraft wheelchair scooter drone" speed="16.67" length="28.56" shape="1020.35,582.56 1023.43,590.72 1024.83,596.66 1024.64,602.72 1022.92,611.23"/>
        <lane id=":275054843_4_1" index="1" disallow="pedestrian tram rail_urban rail rail_electric rail_fast ship container cable_car subway aircraft wheelchair scooter drone" speed="16.67" length="28.56" shape="1016.91,582.53 1019.97,590.50 1021.48,596.29 1021.42,602.20 1019.81,610.50"/>
        <lane id=":275054843_4_2" index="2" disallow="pedestrian tram rail_urban rail rail_electric rail_fast ship container cable_car subway aircraft wheelchair scooter drone" speed="16.67" length="28.56" shape="1013.46,582.51 1016.52,590.28 1018.12,595.92 1018.21,601.67 1016.69,609.78"/>
        <lane id=":275054843_4_3" index="3" disallow="pedestrian tram rail_urban rail rail_electric rail_fast ship container cable_car subway aircraft wheelchair scooter drone" speed="16.67" length="28.56" shape="1010.01,582.48 1013.06,590.06 1014.77,595.55 1014.99,601.15 1013.57,609.05"/>
    </edge>
    <edge id=":275056945_0" function="internal">
        <lane id=":275056945_0_0" index="0" disallow="tram rail_urban rail rail_electric rail_fast ship container cable_car subway aircraft wheelchair scooter drone" speed="13.89" length="9.34" shape="915.83,493.76 906.50,494.13"/>
    </edge>
    <edge id=":275056945_1" function="internal">
        <lane id=":275056945_1_0" index="0" allow="pedestrian delivery bicycle" speed="6.86" length="3.23" shape="915.83,493.76 913.05,493.45 912.67,493.24"/>
    </edge>
    <edge id=":275056945_7" function="internal">
        <lane id=":275056945_7_0" index="0" allow="pedestrian delivery bicycle" speed="6.86" length="6.95" shape="912.67,493.24 911.04,492.33 909.80,490.40 909.33,487.64"/>
    </edge>
    <edge id=":275056945_2" function="internal">
        <lane id=":275056945_2_0" index="0" allow="pedestrian delivery bicycle" speed="5.04" length="5.01" shape="912.53,487.55 912.76,488.91 913.37,489.86 914.36,490.41 915.72,490.56"/>
    </edge>
    <edge id=":275056945_3" function="internal">
        <lane id=":275056945_3_0" index="0" allow="pedestrian delivery bicycle" speed="6.90" length="10.13" shape="912.53,487.55 912.22,490.32 911.11,492.34 909.20,493.61 906.50,494.13"/>
    </edge>
    <edge id=":275056945_4" function="internal">
        <lane id=":275056945_4_0" index="0" allow="pedestrian delivery bicycle" speed="3.65" length="4.67" shape="912.53,487.55 911.76,488.78 910.97,489.20 910.16,488.82 909.33,487.64"/>
    </edge>
    <edge id=":275056945_5" function="internal">
        <lane id=":275056945_5_0" index="0" allow="pedestrian delivery bicycle" speed="5.09" length="5.04" shape="906.35,490.93 907.69,490.67 908.63,490.04 909.18,489.03 909.33,487.64"/>
    </edge>
    <edge id=":275056945_6" function="internal">
        <lane id=":275056945_6_0" index="0" disallow="tram rail_urban rail rail_electric rail_fast ship container cable_car subway aircraft wheelchair scooter drone" speed="13.89" length="9.38" shape="906.35,490.93 915.72,490.56"/>
    </edge>
    <edge id=":275056951_0" function="internal">
        <lane id=":275056951_0_0" index="0" disallow="tram rail_urban rail rail_electric rail_fast ship container cable_car subway aircraft wheelchair scooter drone" speed="12.42" length="18.80" shape="797.76,508.75 793.32,506.38 788.86,505.17 784.37,505.14 779.85,506.27"/>
    </edge>
    <edge id=":275056951_1" function="internal">
        <lane id=":275056951_1_0" index="0" disallow="tram rail_urban rail rail_electric rail_fast ship container cable_car subway aircraft wheelchair scooter drone" speed="13.89" length="21.91" shape="797.76,508.75 779.32,496.91"/>
    </edge>
    <edge id=":275056951_2" function="internal">
        <lane id=":275056951_2_0" index="0" disallow="tram rail_urban rail rail_electric rail_fast ship container cable_car subway aircraft wheelchair scooter drone" speed="7.41" length="5.30" shape="797.76,508.75 793.71,505.31"/>
    </edge>
    <edge id=":275056951_3" function="internal">
        <lane id=":275056951_3_0" index="0" disallow="tram rail_urban rail rail_electric rail_fast ship container cable_car subway aircraft wheelchair scooter drone" speed="3.65" length="1.44" shape="797.76,508.75 797.20,507.42"/>
    </edge>
    <edge id=":275056951_16" function="internal">
        <lane id=":275056951_16_0" index="0" disallow="tram rail_urban rail rail_electric rail_fast ship container cable_car subway aircraft wheelchair scooter drone" speed="7.41" length="13.68" shape="793.71,505.31 793.16,504.84 792.00,501.58 794.26,498.96 799.95,496.98"/>
    </edge>
    <edge id=":275056951_17" function="internal">
        <lane id=":275056951_17_0" index="0" disallow="tram rail_urban rail rail_electric rail_fast ship container cable_car subway aircraft wheelchair scooter drone" speed="3.65" length="3.23" shape="797.20,507.42 797.32,506.53 798.09,506.09 799.54,506.09"/>
    </edge>
    <edge id=":275056951_4" function="internal">
        <lane id=":275056951_4_0" index="0" disallow="tram rail_urban rail rail_electric rail_fast ship container cable_car subway aircraft wheelchair scooter drone" speed="5.49" length="9.66" shape="800.66,500.10 797.76,501.11 796.61,502.44 797.20,504.10 799.54,506.09"/>
    </edge>
    <edge id=":275056951_5" function="internal">
        <lane id=":275056951_5_0" index="0" disallow="tram rail_urban rail rail_electric rail_fast ship container cable_car subway aircraft wheelchair scooter drone" speed="13.89" length="21.71" shape="800.66,500.10 796.00,501.28 790.18,502.93 784.39,504.71 779.85,506.27"/>
    </edge>
    <edge id=":275056951_6" function="internal">
        <lane id=":275056951_6_0" index="0" disallow="tram rail_urban rail rail_electric rail_fast ship container cable_car subway aircraft wheelchair scooter drone" speed="13.89" length="21.83" shape="800.66,500.10 795.86,500.43 789.75,499.89 783.76,498.67 779.32,496.91"/>
    </edge>
    <edge id=":275056951_7" function="internal">
        <lane id=":275056951_7_0" index="0" disallow="tram rail_urban rail rail_electric rail_fast ship container cable_car subway aircraft wheelchair scooter drone" speed="3.65" length="4.67" shape="800.66,500.10 799.31,499.58 798.74,498.89 798.96,498.02 799.95,496.98"/>
    </edge>
    <edge id=":275056951_8" function="internal">
        <lane id=":275056951_8_0" index="0" disallow="tram rail_urban rail rail_electric rail_fast ship container cable_car subway aircraft wheelchair scooter drone" speed="13.89" length="19.45" shape="780.99,494.18 785.06,495.87 790.24,496.97 795.53,497.37 799.95,496.98"/>
    </edge>
    <edge id=":275056951_9" function="internal">
        <lane id=":275056951_9_0" index="0" disallow="tram rail_urban rail rail_electric rail_fast ship container cable_car subway aircraft wheelchair scooter drone" speed="13.89" length="22.04" shape="780.99,494.18 799.54,506.09"/>
    </edge>
    <edge id=":275056951_10" function="internal">
        <lane id=":275056951_10_0" index="0" disallow="tram rail_urban rail rail_electric rail_fast ship container cable_car subway aircraft wheelchair scooter drone" speed="7.38" length="5.55" shape="780.99,494.18 785.33,497.64"/>
    </edge>
    <edge id=":275056951_11" function="internal">
        <lane id=":275056951_11_0" index="0" disallow="tram rail_urban rail rail_electric rail_fast ship container cable_car subway aircraft wheelchair scooter drone" speed="3.65" length="1.44" shape="780.99,494.18 781.59,495.49"/>
    </edge>
    <edge id=":275056951_18" function="internal">
        <lane id=":275056951_18_0" index="0" disallow="tram rail_urban rail rail_electric rail_fast ship container cable_car subway aircraft wheelchair scooter drone" speed="7.38" length="12.36" shape="785.33,497.64 786.58,500.81 784.76,503.68 779.85,506.27"/>
    </edge>
    <edge id=":275056951_19" function="internal">
        <lane id=":275056951_19_0" index="0" disallow="tram rail_urban rail rail_electric rail_fast ship container cable_car subway aircraft wheelchair scooter drone" speed="3.65" length="3.23" shape="781.59,495.49 781.52,496.38 780.76,496.86 779.32,496.91"/>
    </edge>
    <edge id=":275056951_12" function="internal">
        <lane id=":275056951_12_0" index="0" disallow="tram rail_urban rail rail_electric rail_fast ship container cable_car subway aircraft wheelchair scooter drone" speed="5.55" length="9.43" shape="778.72,503.28 781.30,501.92 782.26,500.40 781.60,498.73 779.32,496.91"/>
    </edge>
    <edge id=":275056951_13" function="internal">
        <lane id=":275056951_13_0" index="0" disallow="tram rail_urban rail rail_electric rail_fast ship container cable_car subway aircraft wheelchair scooter drone" speed="13.89" length="22.16" shape="778.72,503.28 783.32,501.70 789.26,499.87 795.24,498.17 799.95,496.98"/>
    </edge>
    <edge id=":275056951_14" function="internal">
        <lane id=":275056951_14_0" index="0" disallow="tram rail_urban rail rail_electric rail_fast ship container cable_car subway aircraft wheelchair scooter drone" speed="13.36" length="21.85" shape="778.72,503.28 784.00,501.95 789.23,501.97 794.41,503.35 799.54,506.09"/>
    </edge>
    <edge id=":275056951_15" function="internal">
        <lane id=":275056951_15_0" index="0" disallow="tram rail_urban rail rail_electric rail_fast ship container cable_car subway aircraft wheelchair scooter drone" speed="3.65" length="4.67" shape="778.72,503.28 780.12,503.60 780.78,504.21 780.69,505.10 779.85,506.27"/>
    </edge>
    <edge id=":275056961_0" function="internal">
        <lane id=":275056961_0_0" index="0" disallow="pedestrian tram rail_urban rail rail_electric rail_fast ship container cable_car subway aircraft wheelchair scooter drone" speed="16.67" length="22.39" shape="967.54,664.20 962.52,660.02 958.88,657.41 954.99,655.17 949.22,652.10"/>
        <lane id=":275056961_0_1" index="1" disallow="pedestrian tram rail_urban rail rail_electric rail_fast ship container cable_car subway aircraft wheelchair scooter drone" speed="16.67" length="22.39" shape="969.36,661.55 964.26,657.30 960.55,654.66 956.59,652.39 950.72,649.28"/>
        <lane id=":275056961_0_2" index="2" disallow="pedestrian tram rail_urban rail rail_electric rail_fast ship container cable_car subway aircraft wheelchair scooter drone" speed="16.67" length="22.39" shape="971.18,658.89 965.99,654.59 962.23,651.91 958.20,649.61 952.23,646.46"/>
    </edge>
    <edge id=":275056961_3" function="internal">
        <lane id=":275056961_3_0" index="0" disallow="pedestrian tram rail_urban rail rail_electric rail_fast ship container cable_car subway aircraft wheelchair scooter drone" speed="16.67" length="23.14" shape="973.53,652.85 966.56,653.60 961.64,653.58 956.97,652.31 950.72,649.28"/>
        <lane id=":275056961_3_1" index="1" disallow="pedestrian tram rail_urban rail rail_electric rail_fast ship container cable_car subway aircraft wheelchair scooter drone" speed="16.67" length="23.14" shape="974.54,649.52 967.73,650.31 962.91,650.44 958.33,649.35 952.23,646.46"/>
        <lane id=":275056961_3_2" index="2" disallow="pedestrian tram rail_urban rail rail_electric rail_fast ship container cable_car subway aircraft wheelchair scooter drone" speed="16.67" length="23.14" shape="975.55,646.18 968.90,647.03 964.18,647.30 959.69,646.38 953.73,643.63"/>
    </edge>
    <edge id=":275056963_0" function="internal">
        <lane id=":275056963_0_0" index="0" disallow="pedestrian tram rail_urban rail rail_electric rail_fast ship container cable_car subway aircraft wheelchair scooter drone" speed="22.22" length="8.65" shape="942.24,648.39 940.34,646.80 939.55,645.11 938.77,643.40 936.90,641.75"/>
        <lane id=":275056963_0_1" index="1" disallow="pedestrian tram rail_urban rail rail_electric rail_fast ship container cable_car subway aircraft wheelchair scooter drone" speed="22.22" length="8.65" shape="943.75,645.56 941.88,644.00 941.11,642.32 940.36,640.62 938.53,638.99"/>
    </edge>
    <edge id=":275056963_2" function="internal">
        <lane id=":275056963_2_0" index="0" disallow="pedestrian tram rail_urban rail rail_electric rail_fast ship container cable_car subway aircraft wheelchair scooter drone" speed="16.67" length="7.83" shape="943.75,645.56 941.57,644.65 939.94,644.27 938.41,643.74 936.51,642.41"/>
        <lane id=":275056963_2_1" index="1" disallow="pedestrian tram rail_urban rail rail_electric rail_fast ship container cable_car subway aircraft wheelchair scooter drone" speed="16.67" length="7.83" shape="945.26,642.74 943.11,641.84 941.52,641.45 940.02,640.92 938.17,639.60"/>
        <lane id=":275056963_2_2" index="2" disallow="pedestrian tram rail_urban rail rail_electric rail_fast ship container cable_car subway aircraft wheelchair scooter drone" speed="16.67" length="7.83" shape="946.76,639.92 944.66,639.03 943.10,638.63 941.64,638.09 939.82,636.80"/>
    </edge>
    <edge id=":275056976_0" function="internal">
        <lane id=":275056976_0_0" index="0" disallow="pedestrian tram rail_urban rail rail_electric rail_fast ship container cable_car subway aircraft wheelchair scooter drone" speed="16.67" length="27.55" shape="913.98,566.07 938.43,553.97"/>
        <lane id=":275056976_0_1" index="1" disallow="pedestrian tram rail_urban rail rail_electric rail_fast ship container cable_car subway aircraft wheelchair scooter drone" speed="16.67" length="27.55" shape="915.18,569.04 939.87,556.83"/>
        <lane id=":275056976_0_2" index="2" disallow="pedestrian tram rail_urban rail rail_electric rail_fast ship container cable_car subway aircraft wheelchair scooter drone" speed="16.67" length="27.55" shape="916.38,572.00 941.32,559.68"/>
    </edge>
    <edge id=":275056976_3" function="internal">
        <lane id=":275056976_3_0" index="0" disallow="pedestrian tram rail_urban rail rail_electric rail_fast ship container cable_car subway aircraft wheelchair scooter drone" speed="16.67" length="26.07" shape="922.08,575.61 925.30,568.44 928.48,563.91 932.91,560.54 939.87,556.83"/>
        <lane id=":275056976_3_1" index="1" disallow="pedestrian tram rail_urban rail rail_electric rail_fast ship container cable_car subway aircraft wheelchair scooter drone" speed="16.67" length="26.07" shape="924.45,578.29 927.50,571.27 930.45,566.75 934.62,563.34 941.32,559.68"/>
        <lane id=":275056976_3_2" index="2" disallow="pedestrian tram rail_urban rail rail_electric rail_fast ship container cable_car subway aircraft wheelchair scooter drone" speed="16.67" length="26.07" shape="926.82,580.96 929.71,574.10 932.43,569.58 936.33,566.15 942.76,562.54"/>
    </edge>
    <edge id=":275056980_0" function="internal">
        <lane id=":275056980_0_0" index="0" disallow="pedestrian tram rail_urban rail rail_electric rail_fast ship container cable_car subway aircraft wheelchair scooter drone" speed="16.67" length="35.93" shape="946.06,550.11 978.80,536.54"/>
        <lane id=":275056980_0_1" index="1" disallow="pedestrian tram rail_urban rail rail_electric rail_fast ship container cable_car subway aircraft wheelchair scooter drone" speed="16.67" length="35.93" shape="946.06,550.11 956.19,545.93 963.97,544.12 971.31,542.64 980.14,539.45"/>
        <lane id=":275056980_0_2" index="2" disallow="pedestrian tram rail_urban rail rail_electric rail_fast ship container cable_car subway aircraft wheelchair scooter drone" speed="16.67" length="35.93" shape="946.06,550.11 956.51,546.33 964.74,545.53 972.48,545.07 981.48,542.35"/>
    </edge>
    <edge id=":275056980_3" function="internal">
        <lane id=":275056980_3_0" index="0" disallow="pedestrian tram rail_urban rail rail_electric rail_fast ship container cable_car subway aircraft wheelchair scooter drone" speed="16.67" length="37.25" shape="946.06,550.11 956.38,545.62 964.16,544.26 972.24,545.20 983.47,547.63"/>
        <lane id=":275056980_3_1" index="1" disallow="pedestrian tram rail_urban rail rail_electric rail_fast ship container cable_car subway aircraft wheelchair scooter drone" speed="16.67" length="37.25" shape="947.51,552.97 956.79,549.31 965.96,547.78 975.02,548.39 983.97,551.12"/>
        <lane id=":275056980_3_2" index="2" disallow="pedestrian tram rail_urban rail rail_electric rail_fast ship container cable_car subway aircraft wheelchair scooter drone" speed="16.67" length="37.25" shape="948.95,555.82 957.68,552.47 966.51,551.19 975.46,551.97 984.51,554.83"/>
        <lane id=":275056980_3_3" index="3" disallow="pedestrian tram rail_urban rail rail_electric rail_fast ship container cable_car subway aircraft wheelchair scooter drone" speed="16.67" length="37.25" shape="950.39,558.68 958.57,555.63 967.06,554.59 975.89,555.56 985.04,558.53"/>
    </edge>
    <edge id=":275057015_0" function="internal">
        <lane id=":275057015_0_0" index="0" disallow="pedestrian tram rail_urban rail rail_electric rail_fast ship container cable_car subway aircraft wheelchair scooter drone" speed="6.41" length="8.65" shape="1009.36,738.28 1008.01,736.22 1006.38,735.06 1004.48,734.80 1002.30,735.45"/>
    </edge>
    <edge id=":275057015_1" function="internal">
        <lane id=":275057015_1_0" index="0" disallow="pedestrian tram rail_urban rail rail_electric rail_fast ship container cable_car subway aircraft wheelchair scooter drone" speed="16.67" length="14.58" shape="1009.36,738.28 1002.79,725.40"/>
        <lane id=":275057015_1_1" index="1" disallow="pedestrian tram rail_urban rail rail_electric rail_fast ship container cable_car subway aircraft wheelchair scooter drone" speed="16.67" length="14.58" shape="1012.24,736.88 1005.61,723.89"/>
        <lane id=":275057015_1_2" index="2" disallow="pedestrian tram rail_urban rail rail_electric rail_fast ship container cable_car subway aircraft wheelchair scooter drone" speed="16.67" length="14.58" shape="1015.12,735.47 1008.43,722.39"/>
    </edge>
    <edge id=":275057015_4" function="internal">
        <lane id=":275057015_4_0" index="0" disallow="pedestrian tram rail_urban rail rail_electric rail_fast ship container cable_car subway aircraft wheelchair scooter drone" speed="6.24" length="8.52" shape="1000.93,732.56 1002.75,731.30 1003.66,729.69 1003.67,727.72 1002.79,725.40"/>
    </edge>
    <edge id=":275057015_5" function="internal">
        <lane id=":275057015_5_0" index="0" disallow="tram rail_urban rail rail_electric rail_fast ship container cable_car subway aircraft wheelchair scooter drone" speed="3.65" length="4.67" shape="1000.93,732.56 1002.36,732.77 1003.06,733.32 1003.04,734.21 1002.30,735.45"/>
    </edge>
    <edge id=":275057016_0" function="internal">
        <lane id=":275057016_0_0" index="0" disallow="pedestrian tram rail_urban rail rail_electric rail_fast ship container cable_car subway aircraft wheelchair scooter drone" speed="16.67" length="9.55" shape="975.17,672.42 973.91,670.28 972.88,668.91 971.64,667.71 969.74,666.09"/>
        <lane id=":275057016_0_1" index="1" disallow="pedestrian tram rail_urban rail rail_electric rail_fast ship container cable_car subway aircraft wheelchair scooter drone" speed="16.67" length="9.55" shape="977.97,670.85 976.53,668.42 975.37,666.86 973.97,665.50 971.82,663.66"/>
        <lane id=":275057016_0_2" index="2" disallow="pedestrian tram rail_urban rail rail_electric rail_fast ship container cable_car subway aircraft wheelchair scooter drone" speed="16.67" length="9.55" shape="980.76,669.29 979.16,666.57 977.86,664.82 976.30,663.29 973.90,661.23"/>
    </edge>
    <edge id=":275057038_0" function="internal">
        <lane id=":275057038_0_0" index="0" disallow="tram rail_urban rail rail_electric rail_fast ship container cable_car subway aircraft wheelchair scooter drone" speed="3.65" length="4.67" shape="814.20,827.70 812.77,827.47 812.08,826.91 812.11,826.02 812.86,824.79"/>
    </edge>
    <edge id=":275057203_0" function="internal">
        <lane id=":275057203_0_0" index="0" disallow="pedestrian tram rail_urban rail rail_electric rail_fast ship container cable_car subway aircraft wheelchair scooter drone" speed="9.77" length="10.32" shape="1082.79,486.07 1083.92,485.04 1084.97,483.15 1085.94,480.41 1086.85,476.80"/>
    </edge>
    <edge id=":275057203_1" function="internal">
        <lane id=":275057203_1_0" index="0" disallow="pedestrian tram rail_urban rail rail_electric rail_fast ship container cable_car subway aircraft wheelchair scooter drone" speed="16.67" length="17.62" shape="1082.79,486.07 1087.13,483.41 1089.76,481.06 1092.32,478.59 1096.45,475.57"/>
        <lane id=":275057203_1_1" index="1" disallow="pedestrian tram rail_urban rail rail_electric rail_fast ship container cable_car subway aircraft wheelchair scooter drone" speed="16.67" length="17.62" shape="1084.25,488.91 1088.67,486.22 1091.34,483.84 1093.95,481.34 1098.16,478.28"/>
        <lane id=":275057203_1_2" index="2" disallow="pedestrian tram rail_urban rail rail_electric rail_fast ship container cable_car subway aircraft wheelchair scooter drone" speed="16.67" length="17.62" shape="1085.72,491.76 1090.20,489.03 1092.93,486.62 1095.59,484.10 1099.86,480.99"/>
        <lane id=":275057203_1_3" index="3" disallow="pedestrian tram rail_urban rail rail_electric rail_fast ship container cable_car subway aircraft wheelchair scooter drone" speed="16.67" length="17.62" shape="1085.72,491.76 1101.56,483.70"/>
    </edge>
    <edge id=":275057207_0" function="internal">
        <lane id=":275057207_0_0" index="0" allow="pedestrian delivery bicycle" speed="3.65" length="4.67" shape="908.08,443.13 908.84,441.91 909.63,441.49 910.44,441.87 911.28,443.04"/>
    </edge>
    <edge id=":275057244_0" function="internal">