<?xml version="1.0" encoding="UTF-8"?>

<!-- generated on 2024-09-03 01:37:03.469773 by randomTrips.py UNKNOWN
<configuration>
    <net-file value="train_files/roundabout/easy/outputs/map(90)_dict/map(90)/map(90).net.xml"/>
    <output-trip-file value="train_files/roundabout/easy/outputs/map(90)_dict/map(90)/map(90).trips.xml"/>
    <fringe-factor value="max"/>
    <validate value="True"/>
    <period value="3.6"/>
</configuration>
-->

<!-- generated on 2024-09-03 01:37:03 by Eclipse SUMO duarouter Version 1.20.0
<configuration xmlns:xsi="http://www.w3.org/2001/XMLSchema-instance" xsi:noNamespaceSchemaLocation="http://sumo.dlr.de/xsd/duarouterConfiguration.xsd">

    <input>
        <net-file value="train_files/roundabout/easy/outputs/map(90)_dict/map(90)/map(90).net.xml"/>
        <route-files value="train_files/roundabout/easy/outputs/map(90)_dict/map(90)/map(90).trips.xml"/>
    </input>

    <output>
        <output-file value="train_files/roundabout/easy/outputs/map(90)_dict/map(90)/map(90).trips.xml.tmp"/>
        <alternatives-output value="NUL"/>
        <write-trips value="true"/>
    </output>

    <time>
        <begin value="0"/>
        <end value="3600"/>
    </time>

    <report>
        <no-warnings value="true"/>
        <ignore-errors value="true"/>
        <no-step-log value="true"/>
    </report>

</configuration>
-->

<routes xmlns:xsi="http://www.w3.org/2001/XMLSchema-instance" xsi:noNamespaceSchemaLocation="http://sumo.dlr.de/xsd/routes_file.xsd">
    <trip id="2" depart="7.20" from="49674164#0" to="25226697#3"/>
    <trip id="3" depart="10.80" from="888744725#0" to="-145398224#0"/>
    <trip id="6" depart="21.60" from="-25226668#2" to="-251608797#0"/>
    <trip id="7" depart="25.20" from="25227098#0" to="25226668#2"/>
    <trip id="8" depart="28.80" from="145398224#0" to="25226697#3"/>
    <trip id="10" depart="36.00" from="49674164#0" to="25226697#3"/>
    <trip id="11" depart="39.60" from="251608797#0" to="-251608797#0"/>
    <trip id="14" depart="50.40" from="49674164#0" to="25226697#3"/>
    <trip id="15" depart="54.00" from="49674164#0" to="49674157#2"/>
    <trip id="16" depart="57.60" from="25226698#0" to="881058731#1"/>
    <trip id="17" depart="61.20" from="251608797#0" to="25226668#2"/>
    <trip id="18" depart="64.80" from="49674164#0" to="25226697#3"/>
    <trip id="19" depart="68.40" from="888744725#0" to="25226697#3"/>
    <trip id="22" depart="79.20" from="-25226668#2" to="-251608797#0"/>
    <trip id="23" depart="82.80" from="-25226668#2" to="-251608797#0"/>
    <trip id="24" depart="86.40" from="25227098#0" to="-25227098#0"/>
    <trip id="25" depart="90.00" from="251608797#0" to="-251608797#0"/>
    <trip id="26" depart="93.60" from="145398224#0" to="881058731#1"/>
    <trip id="28" depart="100.80" from="145398224#0" to="49674157#2"/>
    <trip id="30" depart="108.00" from="888744725#0" to="25226697#3"/>
    <trip id="31" depart="111.60" from="25226698#0" to="25226697#3"/>
    <trip id="32" depart="115.20" from="49674164#0" to="49674157#2"/>
    <trip id="33" depart="118.80" from="145398224#0" to="-145398224#0"/>
    <trip id="34" depart="122.40" from="251608797#0" to="-251608797#0"/>
    <trip id="35" depart="126.00" from="145398224#0" to="881058731#1"/>
    <trip id="37" depart="133.20" from="25227098#0" to="-25227098#0"/>
    <trip id="42" depart="151.20" from="251608797#0" to="-251608797#0"/>
    <trip id="47" depart="169.20" from="-25226668#2" to="-25227098#0"/>
    <trip id="49" depart="176.40" from="888744725#0" to="881058731#1"/>
    <trip id="51" depart="183.60" from="25227098#0" to="25226668#2"/>
    <trip id="52" depart="187.20" from="145398224#0" to="25226697#3"/>
    <trip id="53" depart="190.80" from="-25226668#2" to="25226668#2"/>
    <trip id="54" depart="194.40" from="25226698#0" to="881058731#1"/>
    <trip id="57" depart="205.20" from="888744725#0" to="881058731#1"/>
    <trip id="59" depart="212.40" from="25227098#0" to="-251608797#0"/>
    <trip id="62" depart="223.20" from="-25226668#2" to="-25227098#0"/>
    <trip id="64" depart="230.40" from="888744725#0" to="49674157#2"/>
    <trip id="66" depart="237.60" from="888744725#0" to="881058731#1"/>
    <trip id="67" depart="241.20" from="-25226668#2" to="25226668#2"/>
    <trip id="71" depart="255.60" from="145398224#0" to="881058731#1"/>
    <trip id="72" depart="259.20" from="251608797#0" to="-251608797#0"/>
    <trip id="73" depart="262.80" from="25226698#0" to="49674157#2"/>
    <trip id="75" depart="270.00" from="888744725#0" to="25226697#3"/>
    <trip id="77" depart="277.20" from="-25226668#2" to="-251608797#0"/>
    <trip id="81" depart="291.60" from="145398224#0" to="881058731#1"/>
    <trip id="82" depart="295.20" from="888744725#0" to="-145398224#0"/>
    <trip id="83" depart="298.80" from="145398224#0" to="25226697#3"/>
    <trip id="84" depart="302.40" from="145398224#0" to="-145398224#0"/>
    <trip id="86" depart="309.60" from="25226698#0" to="49674157#2"/>
    <trip id="88" depart="316.80" from="-25226668#2" to="25226668#2"/>
    <trip id="89" depart="320.40" from="251608797#0" to="25226668#2"/>
    <trip id="90" depart="324.00" from="49674164#0" to="25226697#3"/>
    <trip id="91" depart="327.60" from="888744725#0" to="-145398224#0"/>
    <trip id="92" depart="331.20" from="251608797#0" to="-25227098#0"/>
    <trip id="95" depart="342.00" from="251608797#0" to="-251608797#0"/>
    <trip id="96" depart="345.60" from="145398224#0" to="881058731#1"/>
    <trip id="97" depart="349.20" from="25226698#0" to="881058731#1"/>
    <trip id="99" depart="356.40" from="888744725#0" to="49674157#2"/>
    <trip id="100" depart="360.00" from="888744725#0" to="881058731#1"/>
    <trip id="105" depart="378.00" from="145398224#0" to="49674157#2"/>
    <trip id="107" depart="385.20" from="888744725#0" to="881058731#1"/>
    <trip id="108" depart="388.80" from="25226698#0" to="49674157#2"/>
    <trip id="110" depart="396.00" from="888744725#0" to="25226697#3"/>
    <trip id="111" depart="399.60" from="25226698#0" to="49674157#2"/>
    <trip id="113" depart="406.80" from="25226698#0" to="49674157#2"/>
    <trip id="114" depart="410.40" from="145398224#0" to="881058731#1"/>
    <trip id="115" depart="414.00" from="-25226668#2" to="-251608797#0"/>
    <trip id="117" depart="421.20" from="145398224#0" to="-145398224#0"/>
    <trip id="121" depart="435.60" from="25226698#0" to="881058731#1"/>
    <trip id="122" depart="439.20" from="145398224#0" to="49674157#2"/>
    <trip id="124" depart="446.40" from="25227098#0" to="-25227098#0"/>
    <trip id="126" depart="453.60" from="-25226668#2" to="25226668#2"/>
    <trip id="127" depart="457.20" from="888744725#0" to="881058731#1"/>
    <trip id="128" depart="460.80" from="-25226668#2" to="-251608797#0"/>
    <trip id="129" depart="464.40" from="145398224#0" to="881058731#1"/>
    <trip id="130" depart="468.00" from="888744725#0" to="881058731#1"/>
    <trip id="131" depart="471.60" from="251608797#0" to="-251608797#0"/>
    <trip id="132" depart="475.20" from="49674164#0" to="25226697#3"/>
    <trip id="138" depart="496.80" from="-25226668#2" to="25226668#2"/>
    <trip id="139" depart="500.40" from="145398224#0" to="25226697#3"/>
    <trip id="141" depart="507.60" from="25227098#0" to="-251608797#0"/>
    <trip id="142" depart="511.20" from="25226698#0" to="881058731#1"/>
    <trip id="144" depart="518.40" from="251608797#0" to="-251608797#0"/>
    <trip id="146" depart="525.60" from="25227098#0" to="-251608797#0"/>
    <trip id="151" depart="543.60" from="49674164#0" to="25226697#3"/>
    <trip id="152" depart="547.20" from="145398224#0" to="-145398224#0"/>
    <trip id="154" depart="554.40" from="49674164#0" to="881058731#1"/>
    <trip id="156" depart="561.60" from="145398224#0" to="-145398224#0"/>
    <trip id="157" depart="565.20" from="49674164#0" to="881058731#1"/>
    <trip id="159" depart="572.40" from="145398224#0" to="881058731#1"/>
    <trip id="160" depart="576.00" from="888744725#0" to="881058731#1"/>
    <trip id="161" depart="579.60" from="49674164#0" to="881058731#1"/>
    <trip id="164" depart="590.40" from="49674164#0" to="881058731#1"/>
    <trip id="167" depart="601.20" from="888744725#0" to="881058731#1"/>
    <trip id="168" depart="604.80" from="145398224#0" to="49674157#2"/>
    <trip id="171" depart="615.60" from="-25226668#2" to="-251608797#0"/>
    <trip id="174" depart="626.40" from="25227098#0" to="-25227098#0"/>
    <trip id="176" depart="633.60" from="888744725#0" to="-145398224#0"/>
    <trip id="179" depart="644.40" from="-25226668#2" to="25226668#2"/>
    <trip id="181" depart="651.60" from="25227098#0" to="25226668#2"/>
    <trip id="183" depart="658.80" from="145398224#0" to="25226697#3"/>
    <trip id="185" depart="666.00" from="25226698#0" to="49674157#2"/>
    <trip id="186" depart="669.60" from="49674164#0" to="25226697#3"/>
    <trip id="188" depart="676.80" from="25227098#0" to="-25227098#0"/>
    <trip id="191" depart="687.60" from="251608797#0" to="-25227098#0"/>
    <trip id="192" depart="691.20" from="251608797#0" to="-25227098#0"/>
    <trip id="193" depart="694.80" from="-25226668#2" to="-25227098#0"/>
    <trip id="194" depart="698.40" from="888744725#0" to="25226697#3"/>
    <trip id="195" depart="702.00" from="888744725#0" to="25226697#3"/>
    <trip id="196" depart="705.60" from="251608797#0" to="25226668#2"/>
    <trip id="197" depart="709.20" from="-25226668#2" to="-25227098#0"/>
    <trip id="198" depart="712.80" from="25226698#0" to="25226697#3"/>
    <trip id="199" depart="716.40" from="25227098#0" to="25226668#2"/>
    <trip id="201" depart="723.60" from="25226698#0" to="881058731#1"/>
    <trip id="203" depart="730.80" from="-25226668#2" to="25226668#2"/>
    <trip id="204" depart="734.40" from="25227098#0" to="-25227098#0"/>
    <trip id="205" depart="738.00" from="49674164#0" to="49674157#2"/>
    <trip id="206" depart="741.60" from="25227098#0" to="-251608797#0"/>
    <trip id="207" depart="745.20" from="145398224#0" to="-145398224#0"/>
    <trip id="211" depart="759.60" from="145398224#0" to="25226697#3"/>
    <trip id="214" depart="770.40" from="49674164#0" to="49674157#2"/>
    <trip id="215" depart="774.00" from="-25226668#2" to="-25227098#0"/>
    <trip id="216" depart="777.60" from="145398224#0" to="881058731#1"/>
    <trip id="218" depart="784.80" from="145398224#0" to="49674157#2"/>
    <trip id="219" depart="788.40" from="25226698#0" to="49674157#2"/>
    <trip id="222" depart="799.20" from="888744725#0" to="25226697#3"/>
    <trip id="225" depart="810.00" from="888744725#0" to="49674157#2"/>
    <trip id="227" depart="817.20" from="145398224#0" to="25226697#3"/>
    <trip id="229" depart="824.40" from="25227098#0" to="-251608797#0"/>
    <trip id="230" depart="828.00" from="-25226668#2" to="-25227098#0"/>
    <trip id="233" depart="838.80" from="145398224#0" to="25226697#3"/>
    <trip id="235" depart="846.00" from="251608797#0" to="25226668#2"/>
    <trip id="236" depart="849.60" from="251608797#0" to="-251608797#0"/>
    <trip id="239" depart="860.40" from="49674164#0" to="49674157#2"/>
    <trip id="242" depart="871.20" from="49674164#0" to="881058731#1"/>
    <trip id="244" depart="878.40" from="25226698#0" to="25226697#3"/>
    <trip id="248" depart="892.80" from="251608797#0" to="-251608797#0"/>
    <trip id="251" depart="903.60" from="251608797#0" to="25226668#2"/>
    <trip id="253" depart="910.80" from="-25226668#2" to="25226668#2"/>
    <trip id="254" depart="914.40" from="-25226668#2" to="-25227098#0"/>
    <trip id="257" depart="925.20" from="49674164#0" to="49674157#2"/>
    <trip id="258" depart="928.80" from="145398224#0" to="-145398224#0"/>
    <trip id="259" depart="932.40" from="-25226668#2" to="25226668#2"/>
    <trip id="264" depart="950.40" from="-25226668#2" to="-251608797#0"/>
    <trip id="268" depart="964.80" from="145398224#0" to="25226697#3"/>
    <trip id="270" depart="972.00" from="49674164#0" to="881058731#1"/>
    <trip id="277" depart="997.20" from="49674164#0" to="25226697#3"/>
    <trip id="280" depart="1008.00" from="251608797#0" to="-25227098#0"/>
    <trip id="282" depart="1015.20" from="49674164#0" to="49674157#2"/>
    <trip id="285" depart="1026.00" from="25227098#0" to="25226668#2"/>
    <trip id="286" depart="1029.60" from="49674164#0" to="881058731#1"/>
    <trip id="287" depart="1033.20" from="145398224#0" to="49674157#2"/>
    <trip id="289" depart="1040.40" from="25226698#0" to="49674157#2"/>
    <trip id="290" depart="1044.00" from="145398224#0" to="49674157#2"/>
    <trip id="293" depart="1054.80" from="25226698#0" to="25226697#3"/>
    <trip id="296" depart="1065.60" from="145398224#0" to="49674157#2"/>
    <trip id="298" depart="1072.80" from="25227098#0" to="-251608797#0"/>
    <trip id="301" depart="1083.60" from="25226698#0" to="49674157#2"/>
    <trip id="303" depart="1090.80" from="25226698#0" to="49674157#2"/>
    <trip id="304" depart="1094.40" from="-25226668#2" to="-251608797#0"/>
    <trip id="305" depart="1098.00" from="25227098#0" to="-25227098#0"/>
    <trip id="306" depart="1101.60" from="25227098#0" to="25226668#2"/>
    <trip id="309" depart="1112.40" from="25227098#0" to="-251608797#0"/>
    <trip id="310" depart="1116.00" from="145398224#0" to="-145398224#0"/>
    <trip id="311" depart="1119.60" from="145398224#0" to="-145398224#0"/>
    <trip id="312" depart="1123.20" from="25226698#0" to="49674157#2"/>
    <trip id="314" depart="1130.40" from="25226698#0" to="49674157#2"/>
    <trip id="316" depart="1137.60" from="145398224#0" to="-145398224#0"/>
    <trip id="318" depart="1144.80" from="145398224#0" to="-145398224#0"/>
    <trip id="323" depart="1162.80" from="888744725#0" to="25226697#3"/>
    <trip id="325" depart="1170.00" from="145398224#0" to="-145398224#0"/>
    <trip id="329" depart="1184.40" from="-25226668#2" to="-251608797#0"/>
    <trip id="331" depart="1191.60" from="888744725#0" to="-145398224#0"/>
    <trip id="332" depart="1195.20" from="49674164#0" to="25226697#3"/>
    <trip id="335" depart="1206.00" from="25226698#0" to="881058731#1"/>
    <trip id="338" depart="1216.80" from="49674164#0" to="881058731#1"/>
    <trip id="340" depart="1224.00" from="25227098#0" to="-251608797#0"/>
    <trip id="341" depart="1227.60" from="145398224#0" to="-145398224#0"/>
    <trip id="342" depart="1231.20" from="-25226668#2" to="25226668#2"/>
    <trip id="343" depart="1234.80" from="25227098#0" to="-25227098#0"/>
    <trip id="344" depart="1238.40" from="145398224#0" to="25226697#3"/>
    <trip id="345" depart="1242.00" from="25227098#0" to="25226668#2"/>
    <trip id="347" depart="1249.20" from="49674164#0" to="25226697#3"/>
    <trip id="349" depart="1256.40" from="251608797#0" to="25226668#2"/>
    <trip id="358" depart="1288.80" from="-25226668#2" to="25226668#2"/>
    <trip id="359" depart="1292.40" from="251608797#0" to="-251608797#0"/>
    <trip id="361" depart="1299.60" from="49674164#0" to="25226697#3"/>
    <trip id="362" depart="1303.20" from="888744725#0" to="881058731#1"/>
    <trip id="363" depart="1306.80" from="25227098#0" to="-251608797#0"/>
    <trip id="365" depart="1314.00" from="25226698#0" to="25226697#3"/>
    <trip id="369" depart="1328.40" from="251608797#0" to="-25227098#0"/>
    <trip id="376" depart="1353.60" from="251608797#0" to="25226668#2"/>
    <trip id="377" depart="1357.20" from="888744725#0" to="25226697#3"/>
    <trip id="380" depart="1368.00" from="49674164#0" to="25226697#3"/>
    <trip id="382" depart="1375.20" from="25226698#0" to="881058731#1"/>
    <trip id="383" depart="1378.80" from="25226698#0" to="25226697#3"/>
    <trip id="385" depart="1386.00" from="25227098#0" to="-251608797#0"/>
    <trip id="388" depart="1396.80" from="888744725#0" to="881058731#1"/>
    <trip id="392" depart="1411.20" from="145398224#0" to="49674157#2"/>
    <trip id="396" depart="1425.60" from="888744725#0" to="881058731#1"/>
    <trip id="397" depart="1429.20" from="145398224#0" to="49674157#2"/>
    <trip id="399" depart="1436.40" from="25226698#0" to="49674157#2"/>
    <trip id="406" depart="1461.60" from="145398224#0" to="25226697#3"/>
    <trip id="407" depart="1465.20" from="25227098#0" to="-251608797#0"/>
    <trip id="409" depart="1472.40" from="49674164#0" to="25226697#3"/>
    <trip id="413" depart="1486.80" from="-25226668#2" to="25226668#2"/>
    <trip id="418" depart="1504.80" from="25227098#0" to="-251608797#0"/>
    <trip id="419" depart="1508.40" from="25226698#0" to="881058731#1"/>
    <trip id="422" depart="1519.20" from="49674164#0" to="881058731#1"/>
    <trip id="423" depart="1522.80" from="251608797#0" to="-25227098#0"/>
    <trip id="424" depart="1526.40" from="49674164#0" to="49674157#2"/>
    <trip id="425" depart="1530.00" from="888744725#0" to="-145398224#0"/>
    <trip id="427" depart="1537.20" from="888744725#0" to="881058731#1"/>
    <trip id="433" depart="1558.80" from="251608797#0" to="-25227098#0"/>
    <trip id="435" depart="1566.00" from="25226698#0" to="49674157#2"/>
    <trip id="436" depart="1569.60" from="145398224#0" to="-145398224#0"/>
    <trip id="437" depart="1573.20" from="888744725#0" to="25226697#3"/>
    <trip id="438" depart="1576.80" from="145398224#0" to="881058731#1"/>
    <trip id="442" depart="1591.20" from="888744725#0" to="25226697#3"/>
    <trip id="445" depart="1602.00" from="25227098#0" to="-25227098#0"/>
    <trip id="446" depart="1605.60" from="145398224#0" to="49674157#2"/>
    <trip id="451" depart="1623.60" from="888744725#0" to="25226697#3"/>
    <trip id="455" depart="1638.00" from="25226698#0" to="881058731#1"/>
    <trip id="457" depart="1645.20" from="25227098#0" to="-25227098#0"/>
    <trip id="462" depart="1663.20" from="25227098#0" to="-25227098#0"/>
    <trip id="463" depart="1666.80" from="25226698#0" to="25226697#3"/>
    <trip id="466" depart="1677.60" from="145398224#0" to="-145398224#0"/>
    <trip id="467" depart="1681.20" from="25226698#0" to="881058731#1"/>
    <trip id="468" depart="1684.80" from="25226698#0" to="881058731#1"/>
    <trip id="471" depart="1695.60" from="49674164#0" to="49674157#2"/>
    <trip id="473" depart="1702.80" from="888744725#0" to="-145398224#0"/>
    <trip id="474" depart="1706.40" from="888744725#0" to="881058731#1"/>
    <trip id="475" depart="1710.00" from="49674164#0" to="881058731#1"/>
    <trip id="476" depart="1713.60" from="888744725#0" to="49674157#2"/>
    <trip id="478" depart="1720.80" from="-25226668#2" to="25226668#2"/>
    <trip id="479" depart="1724.40" from="25226698#0" to="25226697#3"/>
    <trip id="481" depart="1731.60" from="49674164#0" to="881058731#1"/>
    <trip id="482" depart="1735.20" from="-25226668#2" to="-251608797#0"/>
    <trip id="484" depart="1742.40" from="25226698#0" to="881058731#1"/>
    <trip id="485" depart="1746.00" from="145398224#0" to="-145398224#0"/>
    <trip id="486" depart="1749.60" from="49674164#0" to="881058731#1"/>
    <trip id="487" depart="1753.20" from="251608797#0" to="-25227098#0"/>
    <trip id="489" depart="1760.40" from="251608797#0" to="25226668#2"/>
    <trip id="491" depart="1767.60" from="-25226668#2" to="25226668#2"/>
    <trip id="497" depart="1789.20" from="888744725#0" to="-145398224#0"/>
    <trip id="498" depart="1792.80" from="251608797#0" to="25226668#2"/>
    <trip id="499" depart="1796.40" from="888744725#0" to="49674157#2"/>
    <trip id="501" depart="1803.60" from="25226698#0" to="881058731#1"/>
    <trip id="502" depart="1807.20" from="251608797#0" to="-25227098#0"/>
    <trip id="503" depart="1810.80" from="145398224#0" to="-145398224#0"/>
    <trip id="508" depart="1828.80" from="-25226668#2" to="25226668#2"/>
    <trip id="512" depart="1843.20" from="145398224#0" to="881058731#1"/>
    <trip id="514" depart="1850.40" from="145398224#0" to="-145398224#0"/>
    <trip id="519" depart="1868.40" from="145398224#0" to="-145398224#0"/>
    <trip id="523" depart="1882.80" from="-25226668#2" to="25226668#2"/>
    <trip id="524" depart="1886.40" from="888744725#0" to="-145398224#0"/>
    <trip id="525" depart="1890.00" from="49674164#0" to="881058731#1"/>
    <trip id="527" depart="1897.20" from="888744725#0" to="-145398224#0"/>
    <trip id="529" depart="1904.40" from="25227098#0" to="25226668#2"/>
    <trip id="530" depart="1908.00" from="888744725#0" to="-145398224#0"/>
    <trip id="532" depart="1915.20" from="-25226668#2" to="-251608797#0"/>
    <trip id="533" depart="1918.80" from="25227098#0" to="25226668#2"/>
    <trip id="541" depart="1947.60" from="251608797#0" to="25226668#2"/>
    <trip id="544" depart="1958.40" from="251608797#0" to="-251608797#0"/>
    <trip id="545" depart="1962.00" from="888744725#0" to="-145398224#0"/>
    <trip id="549" depart="1976.40" from="25227098#0" to="25226668#2"/>
    <trip id="552" depart="1987.20" from="49674164#0" to="881058731#1"/>
    <trip id="553" depart="1990.80" from="49674164#0" to="881058731#1"/>
    <trip id="554" depart="1994.40" from="25227098#0" to="-25227098#0"/>
    <trip id="555" depart="1998.00" from="25227098#0" to="-251608797#0"/>
    <trip id="556" depart="2001.60" from="25227098#0" to="-251608797#0"/>
    <trip id="560" depart="2016.00" from="49674164#0" to="881058731#1"/>
    <trip id="561" depart="2019.60" from="49674164#0" to="25226697#3"/>
    <trip id="563" depart="2026.80" from="888744725#0" to="49674157#2"/>
    <trip id="565" depart="2034.00" from="25227098#0" to="-25227098#0"/>
    <trip id="571" depart="2055.60" from="251608797#0" to="-25227098#0"/>
    <trip id="575" depart="2070.00" from="145398224#0" to="25226697#3"/>
    <trip id="576" depart="2073.60" from="25227098#0" to="-251608797#0"/>
    <trip id="577" depart="2077.20" from="25227098#0" to="25226668#2"/>
    <trip id="581" depart="2091.60" from="25227098#0" to="25226668#2"/>
    <trip id="584" depart="2102.40" from="-25226668#2" to="-25227098#0"/>
    <trip id="585" depart="2106.00" from="145398224#0" to="-145398224#0"/>
    <trip id="589" depart="2120.40" from="25227098#0" to="25226668#2"/>
    <trip id="590" depart="2124.00" from="49674164#0" to="49674157#2"/>
    <trip id="593" depart="2134.80" from="888744725#0" to="881058731#1"/>
    <trip id="595" depart="2142.00" from="25227098#0" to="-25227098#0"/>
    <trip id="599" depart="2156.40" from="888744725#0" to="-145398224#0"/>
    <trip id="601" depart="2163.60" from="25227098#0" to="25226668#2"/>
    <trip id="602" depart="2167.20" from="251608797#0" to="-25227098#0"/>
    <trip id="603" depart="2170.80" from="251608797#0" to="-25227098#0"/>
    <trip id="605" depart="2178.00" from="-25226668#2" to="25226668#2"/>
    <trip id="607" depart="2185.20" from="49674164#0" to="49674157#2"/>
    <trip id="611" depart="2199.60" from="25227098#0" to="-251608797#0"/>
    <trip id="613" depart="2206.80" from="49674164#0" to="49674157#2"/>
    <trip id="614" depart="2210.40" from="25226698#0" to="881058731#1"/>
    <trip id="615" depart="2214.00" from="25226698#0" to="25226697#3"/>
    <trip id="617" depart="2221.20" from="25227098#0" to="-251608797#0"/>
    <trip id="618" depart="2224.80" from="-25226668#2" to="25226668#2"/>
    <trip id="619" depart="2228.40" from="251608797#0" to="-251608797#0"/>
    <trip id="620" depart="2232.00" from="-25226668#2" to="25226668#2"/>
    <trip id="621" depart="2235.60" from="251608797#0" to="25226668#2"/>
    <trip id="624" depart="2246.40" from="49674164#0" to="25226697#3"/>
    <trip id="626" depart="2253.60" from="25226698#0" to="49674157#2"/>
    <trip id="628" depart="2260.80" from="49674164#0" to="25226697#3"/>
    <trip id="629" depart="2264.40" from="251608797#0" to="25226668#2"/>
    <trip id="630" depart="2268.00" from="145398224#0" to="-145398224#0"/>
    <trip id="639" depart="2300.40" from="49674164#0" to="25226697#3"/>
    <trip id="641" depart="2307.60" from="25227098#0" to="-251608797#0"/>
    <trip id="642" depart="2311.20" from="49674164#0" to="25226697#3"/>
    <trip id="643" depart="2314.80" from="888744725#0" to="881058731#1"/>
    <trip id="645" depart="2322.00" from="-25226668#2" to="-25227098#0"/>
    <trip id="646" depart="2325.60" from="888744725#0" to="25226697#3"/>
    <trip id="650" depart="2340.00" from="49674164#0" to="25226697#3"/>
    <trip id="651" depart="2343.60" from="49674164#0" to="49674157#2"/>
    <trip id="652" depart="2347.20" from="25227098#0" to="25226668#2"/>
    <trip id="653" depart="2350.80" from="25227098#0" to="-25227098#0"/>
    <trip id="654" depart="2354.40" from="251608797#0" to="-25227098#0"/>
    <trip id="657" depart="2365.20" from="145398224#0" to="-145398224#0"/>
    <trip id="660" depart="2376.00" from="49674164#0" to="881058731#1"/>
    <trip id="661" depart="2379.60" from="-25226668#2" to="-25227098#0"/>
    <trip id="663" depart="2386.80" from="251608797#0" to="-251608797#0"/>
    <trip id="664" depart="2390.40" from="49674164#0" to="49674157#2"/>
    <trip id="667" depart="2401.20" from="25227098#0" to="-251608797#0"/>
    <trip id="673" depart="2422.80" from="888744725#0" to="881058731#1"/>
    <trip id="675" depart="2430.00" from="251608797#0" to="25226668#2"/>
    <trip id="676" depart="2433.60" from="888744725#0" to="49674157#2"/>
    <trip id="678" depart="2440.80" from="145398224#0" to="25226697#3"/>
    <trip id="684" depart="2462.40" from="25226698#0" to="881058731#1"/>
    <trip id="687" depart="2473.20" from="-25226668#2" to="25226668#2"/>
    <trip id="688" depart="2476.80" from="145398224#0" to="881058731#1"/>
    <trip id="690" depart="2484.00" from="888744725#0" to="49674157#2"/>
    <trip id="692" depart="2491.20" from="-25226668#2" to="-25227098#0"/>
    <trip id="693" depart="2494.80" from="49674164#0" to="25226697#3"/>
    <trip id="696" depart="2505.60" from="-25226668#2" to="-251608797#0"/>
    <trip id="699" depart="2516.40" from="-25226668#2" to="-25227098#0"/>
    <trip id="703" depart="2530.80" from="888744725#0" to="25226697#3"/>
    <trip id="704" depart="2534.40" from="-25226668#2" to="25226668#2"/>
    <trip id="706" depart="2541.60" from="25226698#0" to="25226697#3"/>
    <trip id="709" depart="2552.40" from="888744725#0" to="-145398224#0"/>
    <trip id="712" depart="2563.20" from="251608797#0" to="25226668#2"/>
    <trip id="714" depart="2570.40" from="145398224#0" to="-145398224#0"/>
    <trip id="716" depart="2577.60" from="49674164#0" to="25226697#3"/>
    <trip id="717" depart="2581.20" from="49674164#0" to="49674157#2"/>
    <trip id="719" depart="2588.40" from="25226698#0" to="49674157#2"/>
    <trip id="720" depart="2592.00" from="145398224#0" to="49674157#2"/>
    <trip id="721" depart="2595.60" from="25226698#0" to="25226697#3"/>
    <trip id="725" depart="2610.00" from="-25226668#2" to="-251608797#0"/>
    <trip id="727" depart="2617.20" from="25226698#0" to="881058731#1"/>
    <trip id="732" depart="2635.20" from="-25226668#2" to="-25227098#0"/>
    <trip id="733" depart="2638.80" from="888744725#0" to="49674157#2"/>
    <trip id="736" depart="2649.60" from="25226698#0" to="881058731#1"/>
    <trip id="737" depart="2653.20" from="25226698#0" to="49674157#2"/>
    <trip id="747" depart="2689.20" from="888744725#0" to="881058731#1"/>
    <trip id="754" depart="2714.40" from="251608797#0" to="-25227098#0"/>
    <trip id="755" depart="2718.00" from="25226698#0" to="25226697#3"/>
    <trip id="758" depart="2728.80" from="25227098#0" to="25226668#2"/>
    <trip id="760" depart="2736.00" from="145398224#0" to="-145398224#0"/>
    <trip id="762" depart="2743.20" from="251608797#0" to="25226668#2"/>
    <trip id="764" depart="2750.40" from="25226698#0" to="881058731#1"/>
    <trip id="765" depart="2754.00" from="145398224#0" to="881058731#1"/>
    <trip id="772" depart="2779.20" from="25226698#0" to="881058731#1"/>
    <trip id="773" depart="2782.80" from="49674164#0" to="25226697#3"/>
    <trip id="774" depart="2786.40" from="888744725#0" to="25226697#3"/>
    <trip id="776" depart="2793.60" from="-25226668#2" to="-251608797#0"/>
    <trip id="778" depart="2800.80" from="-25226668#2" to="25226668#2"/>
    <trip id="780" depart="2808.00" from="25226698#0" to="25226697#3"/>
    <trip id="781" depart="2811.60" from="-25226668#2" to="-25227098#0"/>
    <trip id="782" depart="2815.20" from="888744725#0" to="49674157#2"/>
    <trip id="783" depart="2818.80" from="25226698#0" to="49674157#2"/>
    <trip id="785" depart="2826.00" from="888744725#0" to="25226697#3"/>
    <trip id="786" depart="2829.60" from="25226698#0" to="25226697#3"/>
    <trip id="788" depart="2836.80" from="49674164#0" to="25226697#3"/>
    <trip id="789" depart="2840.40" from="145398224#0" to="881058731#1"/>
    <trip id="790" depart="2844.00" from="25226698#0" to="881058731#1"/>
    <trip id="795" depart="2862.00" from="888744725#0" to="49674157#2"/>
    <trip id="796" depart="2865.60" from="145398224#0" to="25226697#3"/>
    <trip id="798" depart="2872.80" from="251608797#0" to="25226668#2"/>
    <trip id="803" depart="2890.80" from="25226698#0" to="49674157#2"/>
    <trip id="808" depart="2908.80" from="25226698#0" to="25226697#3"/>
    <trip id="810" depart="2916.00" from="25226698#0" to="49674157#2"/>
    <trip id="811" depart="2919.60" from="25227098#0" to="-25227098#0"/>
    <trip id="814" depart="2930.40" from="145398224#0" to="25226697#3"/>
    <trip id="816" depart="2937.60" from="49674164#0" to="881058731#1"/>
    <trip id="817" depart="2941.20" from="888744725#0" to="-145398224#0"/>
    <trip id="818" depart="2944.80" from="251608797#0" to="25226668#2"/>
    <trip id="819" depart="2948.40" from="251608797#0" to="25226668#2"/>
    <trip id="821" depart="2955.60" from="-25226668#2" to="-25227098#0"/>
    <trip id="823" depart="2962.80" from="145398224#0" to="881058731#1"/>
    <trip id="825" depart="2970.00" from="25227098#0" to="-25227098#0"/>
    <trip id="832" depart="2995.20" from="25226698#0" to="881058731#1"/>
    <trip id="833" depart="2998.80" from="25227098#0" to="25226668#2"/>