<?xml version="1.0" encoding="UTF-8"?>

<!-- generated on 2024-09-03 01:37:03 by Eclipse SUMO netconvert Version 1.20.0
<configuration xmlns:xsi="http://www.w3.org/2001/XMLSchema-instance" xsi:noNamespaceSchemaLocation="http://sumo.dlr.de/xsd/netconvertConfiguration.xsd">

    <input>
        <osm-files value="train_files/roundabout/easy/osm_files/map(95).osm"/>
    </input>

    <output>
        <output-file value="train_files/roundabout/easy/outputs/map(95)_dict/map(95)/map(95).net.xml"/>
    </output>

    <projection>
        <proj.utm value="true"/>
    </projection>

    <building_defaults>
        <default.junctions.keep-clear value="false"/>
    </building_defaults>

</configuration>
-->

<net version="1.20" junctionCornerDetail="5" limitTurnSpeed="5.50" xmlns:xsi="http://www.w3.org/2001/XMLSchema-instance" xsi:noNamespaceSchemaLocation="http://sumo.dlr.de/xsd/net_file.xsd">

    <location netOffset="-424915.95,-5888220.13" convBoundary="0.00,0.00,1589.07,572.98" origBoundary="25.877566,53.138158,25.901293,53.143302" projParameter="+proj=utm +zone=35 +ellps=WGS84 +datum=WGS84 +units=m +no_defs"/>

    <type id="highway.footway" priority="1" numLanes="1" speed="2.78" allow="pedestrian" oneway="1" width="2.00"/>
    <type id="highway.path" priority="1" numLanes="1" speed="5.56" allow="pedestrian bicycle" oneway="0" width="2.00"/>
    <type id="highway.secondary" priority="11" numLanes="1" speed="27.78" disallow="tram rail_urban rail rail_electric rail_fast ship container cable_car subway aircraft wheelchair scooter drone" oneway="0"/>
    <type id="highway.secondary_link" priority="6" numLanes="1" speed="22.22" disallow="tram rail_urban rail rail_electric rail_fast ship container cable_car subway aircraft wheelchair scooter drone" oneway="0"/>
    <type id="highway.service" priority="1" numLanes="1" speed="5.56" allow="pedestrian delivery bicycle" oneway="0"/>
    <type id="highway.tertiary" priority="10" numLanes="1" speed="22.22" disallow="tram rail_urban rail rail_electric rail_fast ship container cable_car subway aircraft wheelchair scooter drone" oneway="0"/>
    <type id="highway.track" priority="1" numLanes="1" speed="5.56" allow="pedestrian motorcycle moped bicycle" oneway="0"/>

    <edge id=":11883154279_0" function="internal">
        <lane id=":11883154279_0_0" index="0" allow="pedestrian delivery bicycle" speed="3.65" length="4.67" shape="383.93,536.90 383.16,535.68 383.13,534.78 383.82,534.22 385.24,533.98"/>
    </edge>
    <edge id=":2060070413_0" function="internal">
        <lane id=":2060070413_0_0" index="0" disallow="tram rail_urban rail rail_electric rail_fast ship container cable_car subway aircraft wheelchair scooter drone" speed="3.65" length="4.67" shape="255.24,146.48 254.11,145.59 253.78,144.76 254.24,143.99 255.50,143.29"/>
    </edge>
    <edge id=":275429822_0" function="internal">
        <lane id=":275429822_0_0" index="0" disallow="tram rail_urban rail rail_electric rail_fast ship container cable_car subway aircraft wheelchair scooter drone" speed="27.78" length="0.31" shape="561.46,263.42 561.20,263.25"/>
    </edge>
    <edge id=":275429822_1" function="internal">
        <lane id=":275429822_1_0" index="0" disallow="tram rail_urban rail rail_electric rail_fast ship container cable_car subway aircraft wheelchair scooter drone" speed="27.78" length="0.26" shape="562.96,260.58 563.17,260.72"/>
    </edge>
    <edge id=":275429823_0" function="internal">
        <lane id=":275429823_0_0" index="0" disallow="tram rail_urban rail rail_electric rail_fast ship container cable_car subway aircraft wheelchair scooter drone" speed="25.00" length="25.94" shape="398.11,165.18 393.08,162.99 386.13,160.07 379.10,157.46 373.85,156.15"/>
    </edge>
    <edge id=":275429823_1" function="internal">
        <lane id=":275429823_1_0" index="0" disallow="tram rail_urban rail rail_electric rail_fast ship container cable_car subway aircraft wheelchair scooter drone" speed="6.08" length="2.13" shape="398.11,165.18 396.59,163.70"/>
    </edge>
    <edge id=":275429823_2" function="internal">
        <lane id=":275429823_2_0" index="0" disallow="tram rail_urban rail rail_electric rail_fast ship container cable_car subway aircraft wheelchair scooter drone" speed="3.65" length="1.44" shape="398.11,165.18 397.33,163.97"/>
    </edge>
    <edge id=":275429823_9" function="internal">
        <lane id=":275429823_9_0" index="0" disallow="tram rail_urban rail rail_electric rail_fast ship container cable_car subway aircraft wheelchair scooter drone" speed="6.08" length="12.86" shape="396.59,163.70 395.32,162.47 395.04,158.87 396.92,155.79 400.63,154.63"/>
    </edge>
    <edge id=":275429823_10" function="internal">
        <lane id=":275429823_10_0" index="0" disallow="tram rail_urban rail rail_electric rail_fast ship container cable_car subway aircraft wheelchair scooter drone" speed="3.65" length="3.23" shape="397.33,163.97 397.28,163.08 397.96,162.50 399.38,162.25"/>
    </edge>
    <edge id=":275429823_3" function="internal">
        <lane id=":275429823_3_0" index="0" disallow="tram rail_urban rail rail_electric rail_fast ship container cable_car subway aircraft wheelchair scooter drone" speed="5.87" length="13.83" shape="400.44,157.83 395.49,157.81 393.67,158.55 394.96,160.02 399.38,162.25"/>
    </edge>
    <edge id=":275429823_4" function="internal">
        <lane id=":275429823_4_0" index="0" disallow="tram rail_urban rail rail_electric rail_fast ship container cable_car subway aircraft wheelchair scooter drone" speed="22.22" length="26.64" shape="400.44,157.83 373.85,156.15"/>
    </edge>
    <edge id=":275429823_5" function="internal">
        <lane id=":275429823_5_0" index="0" disallow="tram rail_urban rail rail_electric rail_fast ship container cable_car subway aircraft wheelchair scooter drone" speed="3.65" length="4.67" shape="400.44,157.83 399.29,156.96 398.93,156.13 399.38,155.36 400.63,154.63"/>
    </edge>
    <edge id=":275429823_6" function="internal">
        <lane id=":275429823_6_0" index="0" disallow="tram rail_urban rail rail_electric rail_fast ship container cable_car subway aircraft wheelchair scooter drone" speed="22.22" length="26.57" shape="374.11,152.96 400.63,154.63"/>
    </edge>
    <edge id=":275429823_7" function="internal">
        <lane id=":275429823_7_0" index="0" disallow="tram rail_urban rail rail_electric rail_fast ship container cable_car subway aircraft wheelchair scooter drone" speed="25.00" length="26.97" shape="374.11,152.96 379.51,154.31 386.89,157.01 394.20,160.01 399.38,162.25"/>
    </edge>
    <edge id=":275429823_8" function="internal">
        <lane id=":275429823_8_0" index="0" disallow="tram rail_urban rail rail_electric rail_fast ship container cable_car subway aircraft wheelchair scooter drone" speed="3.65" length="1.44" shape="374.11,152.96 375.24,153.86"/>
    </edge>
    <edge id=":275429823_11" function="internal">
        <lane id=":275429823_11_0" index="0" disallow="tram rail_urban rail rail_electric rail_fast ship container cable_car subway aircraft wheelchair scooter drone" speed="3.65" length="3.23" shape="375.24,153.86 375.57,154.69 375.11,155.45 373.85,156.15"/>
    </edge>
    <edge id=":275429832_0" function="internal">
        <lane id=":275429832_0_0" index="0" disallow="tram rail_urban rail rail_electric rail_fast ship container cable_car subway aircraft wheelchair scooter drone" speed="3.65" length="4.67" shape="1588.86,163.37 1590.16,164.01 1590.66,164.75 1590.37,165.60 1589.28,166.55"/>
    </edge>
    <edge id=":3682322516_0" function="internal">
        <lane id=":3682322516_0_0" index="0" disallow="tram rail_urban rail rail_electric rail_fast ship container cable_car subway aircraft wheelchair scooter drone" speed="3.65" length="4.67" shape="1453.81,506.54 1454.95,507.42 1455.29,508.25 1454.84,509.02 1453.59,509.73"/>
    </edge>
    <edge id=":783825067_0" function="internal">
        <lane id=":783825067_0_0" index="0" disallow="tram rail_urban rail rail_electric rail_fast ship container cable_car subway aircraft wheelchair scooter drone" speed="19.44" length="22.05" shape="594.28,172.93 589.53,173.49 583.60,175.15 577.72,177.20 573.15,178.92"/>
    </edge>
    <edge id=":783825067_1" function="internal">
        <lane id=":783825067_1_0" index="0" disallow="tram rail_urban rail rail_electric rail_fast ship container cable_car subway aircraft wheelchair scooter drone" speed="19.44" length="22.99" shape="594.28,172.93 571.36,171.10"/>
    </edge>
    <edge id=":783825067_2" function="internal">
        <lane id=":783825067_2_0" index="0" disallow="tram rail_urban rail rail_electric rail_fast ship container cable_car subway aircraft wheelchair scooter drone" speed="3.65" length="1.44" shape="594.28,172.93 593.13,172.06"/>
    </edge>
    <edge id=":783825067_9" function="internal">
        <lane id=":783825067_9_0" index="0" disallow="tram rail_urban rail rail_electric rail_fast ship container cable_car subway aircraft wheelchair scooter drone" speed="3.65" length="3.23" shape="593.13,172.06 592.78,171.23 593.24,170.46 594.48,169.74"/>
    </edge>
    <edge id=":783825067_3" function="internal">
        <lane id=":783825067_3_0" index="0" disallow="tram rail_urban rail rail_electric rail_fast ship container cable_car subway aircraft wheelchair scooter drone" speed="19.44" length="22.93" shape="571.63,167.91 594.48,169.74"/>
    </edge>
    <edge id=":783825067_4" function="internal">
        <lane id=":783825067_4_0" index="0" disallow="tram rail_urban rail rail_electric rail_fast ship container cable_car subway aircraft wheelchair scooter drone" speed="6.23" length="2.25" shape="571.63,167.91 573.68,168.83"/>
    </edge>
    <edge id=":783825067_5" function="internal">
        <lane id=":783825067_5_0" index="0" disallow="tram rail_urban rail rail_electric rail_fast ship container cable_car subway aircraft wheelchair scooter drone" speed="3.65" length="1.44" shape="571.63,167.91 572.76,168.81"/>
    </edge>
    <edge id=":783825067_10" function="internal">
        <lane id=":783825067_10_0" index="0" disallow="tram rail_urban rail rail_electric rail_fast ship container cable_car subway aircraft wheelchair scooter drone" speed="6.23" length="12.99" shape="573.68,168.83 575.28,169.55 576.87,172.80 576.22,176.36 573.15,178.92"/>
    </edge>
    <edge id=":783825067_11" function="internal">
        <lane id=":783825067_11_0" index="0" disallow="tram rail_urban rail rail_electric rail_fast ship container cable_car subway aircraft wheelchair scooter drone" speed="3.65" length="3.23" shape="572.76,168.81 573.09,169.64 572.62,170.40 571.36,171.10"/>
    </edge>
    <edge id=":783825067_6" function="internal">
        <lane id=":783825067_6_0" index="0" disallow="tram rail_urban rail rail_electric rail_fast ship container cable_car subway aircraft wheelchair scooter drone" speed="5.64" length="12.16" shape="572.03,175.93 575.90,174.16 577.08,172.77 575.57,171.75 571.36,171.10"/>
    </edge>
    <edge id=":783825067_7" function="internal">
        <lane id=":783825067_7_0" index="0" disallow="tram rail_urban rail rail_electric rail_fast ship container cable_car subway aircraft wheelchair scooter drone" speed="19.44" length="23.38" shape="572.03,175.93 576.81,174.18 583.14,172.06 589.53,170.32 594.48,169.74"/>
    </edge>
    <edge id=":783825067_8" function="internal">
        <lane id=":783825067_8_0" index="0" disallow="tram rail_urban rail rail_electric rail_fast ship container cable_car subway aircraft wheelchair scooter drone" speed="3.65" length="4.67" shape="572.03,175.93 573.43,176.26 574.09,176.87 573.99,177.76 573.15,178.92"/>
    </edge>
    <edge id=":783825197_0" function="internal">
        <lane id=":783825197_0_0" index="0" disallow="tram rail_urban rail rail_electric rail_fast ship container cable_car subway aircraft wheelchair scooter drone" speed="14.40" length="18.09" shape="549.97,192.17 546.69,194.89 543.42,198.48 540.72,202.46 539.16,206.33"/>
    </edge>
    <edge id=":783825197_1" function="internal">
        <lane id=":783825197_1_0" index="0" allow="pedestrian motorcycle moped bicycle" speed="7.48" length="3.58" shape="549.97,192.17 546.82,193.87"/>
    </edge>
    <edge id=":783825197_2" function="internal">
        <lane id=":783825197_2_0" index="0" disallow="tram rail_urban rail rail_electric rail_fast ship container cable_car subway aircraft wheelchair scooter drone" speed="3.69" length="1.61" shape="549.97,192.17 548.53,192.56 548.41,192.53"/>
    </edge>
    <edge id=":783825197_9" function="internal">
        <lane id=":783825197_9_0" index="0" allow="pedestrian motorcycle moped bicycle" speed="7.48" length="15.47" shape="546.82,193.87 544.43,195.16 540.72,195.25 538.86,192.45 538.82,186.76"/>
    </edge>
    <edge id=":783825197_10" function="internal">
        <lane id=":783825197_10_0" index="0" disallow="tram rail_urban rail rail_electric rail_fast ship container cable_car subway aircraft wheelchair scooter drone" speed="3.69" length="3.21" shape="548.41,192.53 547.64,192.32 547.29,191.47 547.49,189.99"/>
    </edge>
    <edge id=":783825197_3" function="internal">
        <lane id=":783825197_3_0" index="0" allow="pedestrian motorcycle moped bicycle" speed="5.49" length="9.52" shape="542.00,187.16 542.01,190.04 542.92,191.47 544.75,191.46 547.49,189.99"/>
    </edge>
    <edge id=":783825197_4" function="internal">
        <lane id=":783825197_4_0" index="0" allow="pedestrian motorcycle moped bicycle" speed="13.89" length="19.39" shape="542.00,187.16 541.45,191.56 540.75,196.77 539.97,201.97 539.16,206.33"/>
    </edge>
    <edge id=":783825197_5" function="internal">
        <lane id=":783825197_5_0" index="0" allow="pedestrian motorcycle moped bicycle" speed="3.65" length="4.67" shape="542.00,187.16 541.06,188.25 540.21,188.55 539.47,188.05 538.82,186.76"/>
    </edge>
    <edge id=":783825197_6" function="internal">
        <lane id=":783825197_6_0" index="0" allow="pedestrian motorcycle moped bicycle" speed="13.89" length="19.09" shape="536.04,205.64 536.84,201.33 537.60,196.23 538.28,191.12 538.82,186.76"/>
    </edge>
    <edge id=":783825197_7" function="internal">
        <lane id=":783825197_7_0" index="0" disallow="tram rail_urban rail rail_electric rail_fast ship container cable_car subway aircraft wheelchair scooter drone" speed="15.00" length="19.66" shape="536.04,205.64 537.70,201.53 540.62,197.05 544.11,192.94 547.49,189.99"/>
    </edge>
    <edge id=":783825197_8" function="internal">
        <lane id=":783825197_8_0" index="0" disallow="tram rail_urban rail rail_electric rail_fast ship container cable_car subway aircraft wheelchair scooter drone" speed="3.65" length="1.44" shape="536.04,205.64 537.08,204.64"/>
    </edge>
    <edge id=":783825197_11" function="internal">
        <lane id=":783825197_11_0" index="0" disallow="tram rail_urban rail rail_electric rail_fast ship container cable_car subway aircraft wheelchair scooter drone" speed="3.65" length="3.23" shape="537.08,204.64 537.94,204.42 538.64,204.99 539.16,206.33"/>
    </edge>
    <edge id=":783825216_0" function="internal">
        <lane id=":783825216_0_0" index="0" allow="pedestrian delivery bicycle" speed="4.93" length="5.16" shape="544.84,252.46 543.53,251.84 542.39,251.82 541.40,252.39 540.58,253.56"/>
    </edge>
    <edge id=":783825216_1" function="internal">
        <lane id=":783825216_1_0" index="0" disallow="tram rail_urban rail rail_electric rail_fast ship container cable_car subway aircraft wheelchair scooter drone" speed="27.78" length="17.77" shape="544.84,252.46 529.79,243.01"/>
    </edge>
    <edge id=":783825216_2" function="internal">
        <lane id=":783825216_2_0" index="0" disallow="tram rail_urban rail rail_electric rail_fast ship container cable_car subway aircraft wheelchair scooter drone" speed="14.03" length="3.96" shape="544.84,252.46 542.00,249.94 541.90,249.80"/>
    </edge>
    <edge id=":783825216_3" function="internal">
        <lane id=":783825216_3_0" index="0" disallow="tram rail_urban rail rail_electric rail_fast ship container cable_car subway aircraft wheelchair scooter drone" speed="3.65" length="1.44" shape="544.84,252.46 544.28,251.13"/>
    </edge>
    <edge id=":783825216_13" function="internal">
        <lane id=":783825216_13_0" index="0" disallow="tram rail_urban rail rail_electric rail_fast ship container cable_car subway aircraft wheelchair scooter drone" speed="14.03" length="14.44" shape="541.90,249.80 539.63,246.47 537.73,242.03 536.30,236.63"/>
    </edge>
    <edge id=":783825216_14" function="internal">
        <lane id=":783825216_14_0" index="0" disallow="tram rail_urban rail rail_electric rail_fast ship container cable_car subway aircraft wheelchair scooter drone" speed="3.65" length="3.23" shape="544.28,251.13 544.39,250.24 545.16,249.79 546.60,249.78"/>
    </edge>
    <edge id=":783825216_4" function="internal">
        <lane id=":783825216_4_0" index="0" disallow="tram rail_urban rail rail_electric rail_fast ship container cable_car subway aircraft wheelchair scooter drone" speed="13.21" length="16.25" shape="539.37,235.64 540.64,240.58 542.27,244.58 544.26,247.65 546.60,249.78"/>
    </edge>
    <edge id=":783825216_5" function="internal">
        <lane id=":783825216_5_0" index="0" allow="pedestrian delivery bicycle" speed="13.89" length="18.22" shape="539.37,235.64 540.29,239.88 541.19,244.77 541.48,249.57 540.58,253.56"/>
    </edge>
    <edge id=":783825216_6" function="internal">
        <lane id=":783825216_6_0" index="0" disallow="tram rail_urban rail rail_electric rail_fast ship container cable_car subway aircraft wheelchair scooter drone" speed="7.43" length="19.01" shape="539.37,235.64 539.92,241.78 538.50,245.05 535.13,245.46 529.79,243.01"/>
    </edge>
    <edge id=":783825216_7" function="internal">
        <lane id=":783825216_7_0" index="0" disallow="tram rail_urban rail rail_electric rail_fast ship container cable_car subway aircraft wheelchair scooter drone" speed="3.66" length="4.70" shape="539.37,235.64 538.97,237.04 538.33,237.67 537.44,237.53 536.30,236.63"/>
    </edge>
    <edge id=":783825216_8" function="internal">
        <lane id=":783825216_8_0" index="0" disallow="tram rail_urban rail rail_electric rail_fast ship container cable_car subway aircraft wheelchair scooter drone" speed="27.78" length="17.87" shape="531.47,240.28 546.60,249.78"/>
    </edge>
    <edge id=":783825216_9" function="internal">
        <lane id=":783825216_9_0" index="0" allow="pedestrian delivery bicycle" speed="7.87" length="12.82" shape="537.72,252.12 537.84,250.34 536.56,248.23 533.87,245.78 529.79,243.01"/>
    </edge>
    <edge id=":783825216_10" function="internal">
        <lane id=":783825216_10_0" index="0" allow="pedestrian delivery bicycle" speed="13.89" length="15.84" shape="537.72,252.12 538.59,248.51 538.23,244.54 537.26,240.49 536.30,236.63"/>
    </edge>
    <edge id=":783825216_11" function="internal">
        <lane id=":783825216_11_0" index="0" allow="pedestrian delivery bicycle" speed="6.78" length="10.77" shape="537.72,252.12 539.44,249.67 541.50,248.46 543.88,248.50 546.60,249.78"/>
    </edge>
    <edge id=":783825216_12" function="internal">
        <lane id=":783825216_12_0" index="0" allow="pedestrian delivery bicycle" speed="3.65" length="4.67" shape="537.72,252.12 538.98,251.41 539.87,251.41 540.41,252.13 540.58,253.56"/>
    </edge>
    <edge id=":9002326844_0" function="internal">
        <lane id=":9002326844_0_0" index="0" allow="pedestrian bicycle" speed="6.97" length="6.74" width="2.00" shape="414.95,172.78 413.98,172.55 412.62,172.80 410.87,173.53 408.72,174.74"/>
    </edge>
    <edge id=":9002326844_1" function="internal">
        <lane id=":9002326844_1_0" index="0" disallow="tram rail_urban rail rail_electric rail_fast ship container cable_car subway aircraft wheelchair scooter drone" speed="27.78" length="8.06" shape="414.95,172.78 412.88,171.59 411.41,170.88 409.89,170.26 407.68,169.33"/>
    </edge>
    <edge id=":9002326844_2" function="internal">
        <lane id=":9002326844_2_0" index="0" disallow="tram rail_urban rail rail_electric rail_fast ship container cable_car subway aircraft wheelchair scooter drone" speed="27.78" length="8.49" shape="408.95,166.40 411.28,167.37 412.88,168.03 414.43,168.79 416.61,170.05"/>
    </edge>
    <edge id=":9002326844_3" function="internal">
        <lane id=":9002326844_3_0" index="0" allow="pedestrian bicycle" speed="6.20" length="3.41" width="2.00" shape="408.95,166.40 411.86,168.19"/>
    </edge>
    <edge id=":9002326844_7" function="internal">
        <lane id=":9002326844_7_0" index="0" allow="pedestrian bicycle" speed="6.20" length="8.46" width="2.00" shape="411.86,168.19 412.79,170.17 411.75,172.36 408.72,174.74"/>
    </edge>
    <edge id=":9002326844_4" function="internal">
        <lane id=":9002326844_4_0" index="0" allow="pedestrian bicycle" speed="4.23" length="5.28" width="2.00" shape="407.67,173.04 408.99,171.99 409.44,171.02 409.00,170.14 407.68,169.33"/>
    </edge>
    <edge id=":9002326844_5" function="internal">
        <lane id=":9002326844_5_0" index="0" allow="pedestrian bicycle" speed="8.15" length="9.70" width="2.00" shape="407.67,173.04 410.80,171.26 413.34,170.17 415.27,169.76 416.61,170.05"/>
    </edge>
    <edge id=":9002326844_6" function="internal">
        <lane id=":9002326844_6_0" index="0" allow="pedestrian bicycle" speed="2.89" length="2.92" width="2.00" shape="407.67,173.04 408.57,173.07 409.05,173.36 409.10,173.92 408.72,174.74"/>
    </edge>
    <edge id=":9002326847_0" function="internal">
        <lane id=":9002326847_0_0" index="0" allow="pedestrian bicycle" speed="2.89" length="2.92" width="2.00" shape="306.22,218.97 305.38,218.66 305.02,218.23 305.15,217.68 305.76,217.03"/>
    </edge>
    <edge id=":9132860585_0" function="internal">
        <lane id=":9132860585_0_0" index="0" allow="pedestrian delivery bicycle" speed="3.65" length="4.67" shape="511.26,-0.12 512.15,-1.26 512.98,-1.60 513.75,-1.13 514.45,0.12"/>
    </edge>
    <edge id=":9132860586_0" function="internal">
        <lane id=":9132860586_0_0" index="0" allow="pedestrian motorcycle moped bicycle" speed="3.65" length="4.67" shape="545.31,69.33 546.19,68.19 547.01,67.84 547.78,68.29 548.51,69.53"/>
    </edge>
    <edge id=":9132860597_0" function="internal">
        <lane id=":9132860597_0_0" index="0" allow="pedestrian delivery bicycle" speed="5.56" length="11.51" shape="532.08,125.88 531.04,122.86 529.97,120.55 528.83,118.26 527.56,115.31"/>
    </edge>
    <edge id=":9132860597_1" function="internal">
        <lane id=":9132860597_1_0" index="0" allow="pedestrian bicycle" speed="5.56" length="12.65" shape="532.08,125.88 531.64,122.62 532.13,119.78 533.19,116.95 534.44,113.73"/>
    </edge>
    <edge id=":9132860597_2" function="internal">
        <lane id=":9132860597_2_0" index="0" allow="pedestrian delivery bicycle" speed="3.65" length="4.67" shape="532.08,125.88 532.52,124.51 533.18,123.90 534.06,124.06 535.16,125.00"/>
    </edge>
    <edge id=":9132860597_3" function="internal">
        <lane id=":9132860597_3_0" index="0" allow="pedestrian bicycle" speed="5.56" length="10.80" shape="537.46,114.77 536.22,117.69 535.18,119.85 534.70,122.04 535.16,125.00"/>
    </edge>
    <edge id=":9132860597_4" function="internal">
        <lane id=":9132860597_4_0" index="0" allow="pedestrian bicycle" speed="5.56" length="17.35" shape="537.46,114.77 535.05,120.00 532.60,121.84 530.10,120.27 527.56,115.31"/>
    </edge>
    <edge id=":9132860597_5" function="internal">
        <lane id=":9132860597_5_0" index="0" allow="pedestrian motorcycle moped bicycle" speed="3.65" length="4.67" shape="537.46,114.77 536.31,115.65 535.43,115.76 534.80,115.12 534.44,113.73"/>
    </edge>
    <edge id=":9132860597_6" function="internal">
        <lane id=":9132860597_6_0" index="0" allow="pedestrian bicycle" speed="4.69" length="6.98" shape="530.45,113.92 531.47,115.92 532.48,116.56 533.47,115.83 534.44,113.73"/>
    </edge>
    <edge id=":9132860597_7" function="internal">
        <lane id=":9132860597_7_0" index="0" allow="pedestrian delivery bicycle" speed="5.56" length="12.03" shape="530.45,113.92 535.16,125.00"/>
    </edge>
    <edge id=":9132860597_8" function="internal">
        <lane id=":9132860597_8_0" index="0" allow="pedestrian delivery bicycle" speed="3.65" length="4.69" shape="530.45,113.92 530.25,115.35 529.70,116.06 528.80,116.05 527.56,115.31"/>
    </edge>
    <edge id=":9132860599_0" function="internal">
        <lane id=":9132860599_0_0" index="0" allow="pedestrian motorcycle moped bicycle" speed="6.65" length="9.23" shape="549.72,169.29 547.26,169.44 545.40,170.38 544.15,172.08 543.51,174.57"/>
    </edge>
    <edge id=":9132860599_1" function="internal">
        <lane id=":9132860599_1_0" index="0" disallow="tram rail_urban rail rail_electric rail_fast ship container cable_car subway aircraft wheelchair scooter drone" speed="22.22" length="14.41" shape="549.72,169.29 535.35,168.12"/>
    </edge>
    <edge id=":9132860599_2" function="internal">
        <lane id=":9132860599_2_0" index="0" allow="pedestrian delivery bicycle" speed="7.50" length="4.86" shape="549.72,169.29 546.91,168.62 545.14,167.75"/>
    </edge>
    <edge id=":9132860599_3" function="internal">
        <lane id=":9132860599_3_0" index="0" disallow="tram rail_urban rail rail_electric rail_fast ship container cable_car subway aircraft wheelchair scooter drone" speed="3.65" length="1.44" shape="549.72,169.29 548.59,168.39"/>
    </edge>
    <edge id=":9132860599_16" function="internal">
        <lane id=":9132860599_16_0" index="0" allow="pedestrian delivery bicycle" speed="7.50" length="6.13" shape="545.14,167.75 544.10,167.24 541.92,165.44 540.98,163.51"/>
    </edge>
    <edge id=":9132860599_17" function="internal">
        <lane id=":9132860599_17_0" index="0" disallow="tram rail_urban rail rail_electric rail_fast ship container cable_car subway aircraft wheelchair scooter drone" speed="3.65" length="3.23" shape="548.59,168.39 548.26,167.56 548.72,166.79 549.99,166.10"/>
    </edge>
    <edge id=":9132860599_4" function="internal">
        <lane id=":9132860599_4_0" index="0" allow="pedestrian delivery bicycle" speed="6.07" length="6.89" shape="544.17,163.33 544.59,164.36 545.69,165.17 547.49,165.75 549.99,166.10"/>
    </edge>
    <edge id=":9132860599_5" function="internal">
        <lane id=":9132860599_5_0" index="0" allow="pedestrian bicycle" speed="5.56" length="11.29" shape="544.17,163.33 544.27,166.49 544.17,168.96 543.90,171.42 543.51,174.57"/>
    </edge>
    <edge id=":9132860599_6" function="internal">
        <lane id=":9132860599_6_0" index="0" allow="pedestrian delivery bicycle" speed="6.74" length="10.78" shape="544.17,163.33 543.33,165.28 541.07,166.86 538.16,167.87 535.35,168.12"/>
    </edge>
    <edge id=":9132860599_7" function="internal">
        <lane id=":9132860599_7_0" index="0" allow="pedestrian delivery bicycle" speed="3.65" length="4.67" shape="544.17,163.33 543.44,164.57 542.67,165.02 541.85,164.66 540.98,163.51"/>
    </edge>
    <edge id=":9132860599_8" function="internal">
        <lane id=":9132860599_8_0" index="0" allow="pedestrian delivery bicycle" speed="5.23" length="6.04" shape="535.61,164.93 538.00,165.00 539.69,164.79 540.68,164.29 540.98,163.51"/>
    </edge>
    <edge id=":9132860599_9" function="internal">
        <lane id=":9132860599_9_0" index="0" disallow="tram rail_urban rail rail_electric rail_fast ship container cable_car subway aircraft wheelchair scooter drone" speed="22.22" length="14.43" shape="535.61,164.93 549.99,166.10"/>
    </edge>
    <edge id=":9132860599_10" function="internal">
        <lane id=":9132860599_10_0" index="0" allow="pedestrian motorcycle moped bicycle" speed="7.93" length="3.95" shape="535.61,164.93 539.46,165.80"/>
    </edge>
    <edge id=":9132860599_11" function="internal">
        <lane id=":9132860599_11_0" index="0" disallow="tram rail_urban rail rail_electric rail_fast ship container cable_car subway aircraft wheelchair scooter drone" speed="3.65" length="1.44" shape="535.61,164.93 536.74,165.82"/>
    </edge>
    <edge id=":9132860599_18" function="internal">
        <lane id=":9132860599_18_0" index="0" allow="pedestrian motorcycle moped bicycle" speed="7.93" length="10.39" shape="539.46,165.80 542.07,167.69 543.41,170.62 543.51,174.57"/>
    </edge>
    <edge id=":9132860599_19" function="internal">
        <lane id=":9132860599_19_0" index="0" disallow="tram rail_urban rail rail_electric rail_fast ship container cable_car subway aircraft wheelchair scooter drone" speed="3.65" length="3.23" shape="536.74,165.82 537.07,166.65 536.61,167.42 535.35,168.12"/>
    </edge>
    <edge id=":9132860599_12" function="internal">
        <lane id=":9132860599_12_0" index="0" allow="pedestrian motorcycle moped bicycle" speed="6.42" length="9.04" shape="540.33,174.19 540.27,171.70 539.42,169.86 537.78,168.67 535.35,168.12"/>
    </edge>
    <edge id=":9132860599_13" function="internal">
        <lane id=":9132860599_13_0" index="0" allow="pedestrian bicycle" speed="5.56" length="10.72" shape="540.33,174.19 540.72,171.13 540.99,168.86 541.08,166.59 540.98,163.51"/>
    </edge>
    <edge id=":9132860599_14" function="internal">
        <lane id=":9132860599_14_0" index="0" allow="pedestrian motorcycle moped bicycle" speed="8.12" length="14.26" shape="540.33,174.19 541.33,170.38 543.27,167.76 546.16,166.33 549.99,166.10"/>
    </edge>
    <edge id=":9132860599_15" function="internal">
        <lane id=":9132860599_15_0" index="0" allow="pedestrian motorcycle moped bicycle" speed="3.65" length="4.67" shape="540.33,174.19 541.27,173.09 542.11,172.79 542.86,173.28 543.51,174.57"/>
    </edge>
    <edge id=":9927210551_0" function="internal">
        <lane id=":9927210551_0_0" index="0" allow="pedestrian delivery bicycle" speed="5.56" length="4.36" shape="540.97,163.31 540.71,158.97"/>
    </edge>