<?xml version="1.0" encoding="UTF-8"?>

<!-- generated on 2024-09-03 01:36:47.072333 by randomTrips.py UNKNOWN
<configuration>
    <net-file value="train_files/roundabout/easy/outputs/map(103)_dict/map(103)/map(103).net.xml"/>
    <output-trip-file value="train_files/roundabout/easy/outputs/map(103)_dict/map(103)/map(103).trips.xml"/>
    <fringe-factor value="max"/>
    <validate value="True"/>
    <period value="3.6"/>
</configuration>
-->

<!-- generated on 2024-09-03 01:36:47 by Eclipse SUMO duarouter Version 1.20.0
<configuration xmlns:xsi="http://www.w3.org/2001/XMLSchema-instance" xsi:noNamespaceSchemaLocation="http://sumo.dlr.de/xsd/duarouterConfiguration.xsd">

    <input>
        <net-file value="train_files/roundabout/easy/outputs/map(103)_dict/map(103)/map(103).net.xml"/>
        <route-files value="train_files/roundabout/easy/outputs/map(103)_dict/map(103)/map(103).trips.xml"/>
    </input>

    <output>
        <output-file value="train_files/roundabout/easy/outputs/map(103)_dict/map(103)/map(103).trips.xml.tmp"/>
        <alternatives-output value="NUL"/>
        <write-trips value="true"/>
    </output>

    <time>
        <begin value="0"/>
        <end value="3600"/>
    </time>

    <report>
        <no-warnings value="true"/>
        <ignore-errors value="true"/>
        <no-step-log value="true"/>
    </report>

</configuration>
-->

<routes xmlns:xsi="http://www.w3.org/2001/XMLSchema-instance" xsi:noNamespaceSchemaLocation="http://sumo.dlr.de/xsd/routes_file.xsd">
    <trip id="1" depart="3.60" from="25491351#0" to="23058448"/>
    <trip id="2" depart="7.20" from="540392791#0" to="30969502#1"/>
    <trip id="7" depart="25.20" from="35829777#0" to="29999825#4"/>
    <trip id="10" depart="36.00" from="68546136#0" to="30969502#1"/>
    <trip id="11" depart="39.60" from="279297825#0" to="23058448"/>
    <trip id="13" depart="46.80" from="-23058439" to="23058439"/>
    <trip id="14" depart="50.40" from="68546136#0" to="29999825#4"/>
    <trip id="15" depart="54.00" from="68546136#0" to="30969502#1"/>
    <trip id="17" depart="61.20" from="279297825#0" to="29999825#4"/>
    <trip id="18" depart="64.80" from="68546136#0" to="29999825#4"/>
    <trip id="19" depart="68.40" from="68546136#0" to="29999825#4"/>
    <trip id="21" depart="75.60" from="25491351#0" to="25491237#4"/>
    <trip id="24" depart="86.40" from="35829777#0" to="25491237#4"/>
    <trip id="25" depart="90.00" from="279297825#0" to="23058448"/>
    <trip id="27" depart="97.20" from="35829777#0" to="29999825#4"/>
    <trip id="31" depart="111.60" from="35829777#0" to="30969502#1"/>
    <trip id="32" depart="115.20" from="68546136#0" to="35829592#3"/>
    <trip id="34" depart="122.40" from="25491351#0" to="25491237#4"/>
    <trip id="35" depart="126.00" from="-35829816" to="35829816"/>
    <trip id="36" depart="129.60" from="68546136#0" to="25491237#4"/>
    <trip id="37" depart="133.20" from="35829777#0" to="278015286"/>
    <trip id="39" depart="140.40" from="25491351#0" to="23058448"/>
    <trip id="40" depart="144.00" from="35829777#0" to="25491237#4"/>
    <trip id="42" depart="151.20" from="279297825#0" to="23058448"/>
    <trip id="43" depart="154.80" from="68546140" to="29999825#4"/>
    <trip id="44" depart="158.40" from="-23058439" to="23058439"/>
    <trip id="46" depart="165.60" from="68546136#0" to="278015286"/>
    <trip id="48" depart="172.80" from="68546140" to="29999825#4"/>
    <trip id="51" depart="183.60" from="540392791#0" to="29999825#4"/>
    <trip id="52" depart="187.20" from="25491351#0" to="30969502#1"/>
    <trip id="55" depart="198.00" from="68546136#0" to="25491237#4"/>
    <trip id="56" depart="201.60" from="34080354" to="23058448"/>
    <trip id="58" depart="208.80" from="25491351#0" to="30969502#1"/>
    <trip id="59" depart="212.40" from="35829777#0" to="23058448"/>
    <trip id="60" depart="216.00" from="540392791#0" to="29999825#4"/>
    <trip id="61" depart="219.60" from="68546136#0" to="29999825#4"/>
    <trip id="63" depart="226.80" from="-23058439" to="35829816"/>
    <trip id="64" depart="230.40" from="68546136#0" to="35829592#3"/>
    <trip id="69" depart="248.40" from="540392791#0" to="23058448"/>
    <trip id="70" depart="252.00" from="34080354" to="29999825#4"/>
    <trip id="71" depart="255.60" from="25491351#0" to="35829592#3"/>
    <trip id="72" depart="259.20" from="279297825#0" to="23058448"/>
    <trip id="73" depart="262.80" from="34080354" to="30969502#1"/>
    <trip id="76" depart="273.60" from="279297825#0" to="29999825#4"/>
    <trip id="78" depart="280.80" from="279297825#0" to="29999825#4"/>
    <trip id="79" depart="284.40" from="25491351#0" to="23058448"/>
    <trip id="83" depart="298.80" from="25491351#0" to="30969502#1"/>
    <trip id="85" depart="306.00" from="68546140" to="29999825#4"/>
    <trip id="86" depart="309.60" from="34080354" to="35829592#3"/>
    <trip id="87" depart="313.20" from="68546136#0" to="23058448"/>
    <trip id="89" depart="320.40" from="279297825#0" to="278015286"/>
    <trip id="90" depart="324.00" from="540392791#0" to="30969502#1"/>
    <trip id="92" depart="331.20" from="279297825#0" to="25491237#4"/>
    <trip id="93" depart="334.80" from="68546136#0" to="23058448"/>
    <trip id="95" depart="342.00" from="279297825#0" to="25491237#4"/>
    <trip id="97" depart="349.20" from="279297825#0" to="35829592#3"/>
    <trip id="101" depart="363.60" from="68546136#0" to="23058448"/>
    <trip id="102" depart="367.20" from="34080354" to="23058448"/>
    <trip id="105" depart="378.00" from="25491351#0" to="35829592#3"/>
    <trip id="106" depart="381.60" from="34080354" to="278015286"/>
    <trip id="108" depart="388.80" from="35829777#0" to="30969502#1"/>
    <trip id="110" depart="396.00" from="68546140" to="29999825#4"/>
    <trip id="111" depart="399.60" from="34080354" to="30969502#1"/>
    <trip id="113" depart="406.80" from="34080354" to="35829592#3"/>
    <trip id="114" depart="410.40" from="-35829816" to="35829816"/>
    <trip id="116" depart="417.60" from="35829777#0" to="30969502#1"/>
    <trip id="119" depart="428.40" from="35829777#0" to="29999825#4"/>
    <trip id="120" depart="432.00" from="279297825#0" to="29999825#4"/>
    <trip id="123" depart="442.80" from="25491351#0" to="278015286"/>
    <trip id="124" depart="446.40" from="540392791#0" to="25491237#4"/>
    <trip id="125" depart="450.00" from="25491351#0" to="35829592#3"/>
    <trip id="131" depart="471.60" from="279297825#0" to="23058448"/>
    <trip id="132" depart="475.20" from="68546136#0" to="30969502#1"/>
    <trip id="135" depart="486.00" from="68546136#0" to="25491237#4"/>
    <trip id="137" depart="493.20" from="-35829816" to="23058439"/>
    <trip id="139" depart="500.40" from="25491351#0" to="29999825#4"/>
    <trip id="140" depart="504.00" from="540392791#0" to="23058448"/>
    <trip id="141" depart="507.60" from="35829777#0" to="25491237#4"/>
    <trip id="144" depart="518.40" from="279297825#0" to="25491237#4"/>
    <trip id="146" depart="525.60" from="35829777#0" to="25491237#4"/>
    <trip id="147" depart="529.20" from="540392791#0" to="29999825#4"/>
    <trip id="149" depart="536.40" from="-23058439" to="35829816"/>
    <trip id="150" depart="540.00" from="68546140" to="29999825#4"/>
    <trip id="151" depart="543.60" from="68546136#0" to="29999825#4"/>
    <trip id="154" depart="554.40" from="68546136#0" to="35829592#3"/>
    <trip id="158" depart="568.80" from="279297825#0" to="29999825#4"/>
    <trip id="159" depart="572.40" from="-35829816" to="35829816"/>
    <trip id="164" depart="590.40" from="68546136#0" to="35829592#3"/>
    <trip id="165" depart="594.00" from="68546136#0" to="25491237#4"/>
    <trip id="167" depart="601.20" from="68546136#0" to="35829592#3"/>
    <trip id="168" depart="604.80" from="25491351#0" to="35829592#3"/>
    <trip id="169" depart="608.40" from="34080354" to="25491237#4"/>
    <trip id="170" depart="612.00" from="68546136#0" to="23058448"/>
    <trip id="172" depart="619.20" from="25491351#0" to="35829592#3"/>
    <trip id="174" depart="626.40" from="35829777#0" to="278015286"/>
    <trip id="175" depart="630.00" from="68546140" to="29999825#4"/>
    <trip id="180" depart="648.00" from="540392791#0" to="25491237#4"/>
    <trip id="181" depart="651.60" from="35829777#0" to="29999825#4"/>
    <trip id="182" depart="655.20" from="279297825#0" to="29999825#4"/>
    <trip id="183" depart="658.80" from="25491351#0" to="30969502#1"/>
    <trip id="184" depart="662.40" from="-23058439" to="35829816"/>
    <trip id="185" depart="666.00" from="34080354" to="30969502#1"/>
    <trip id="186" depart="669.60" from="540392791#0" to="30969502#1"/>
    <trip id="188" depart="676.80" from="35829777#0" to="25491237#4"/>
    <trip id="189" depart="680.40" from="25491351#0" to="35829592#3"/>
    <trip id="190" depart="684.00" from="540392791#0" to="25491237#4"/>
    <trip id="191" depart="687.60" from="25491351#0" to="278015286"/>
    <trip id="192" depart="691.20" from="279297825#0" to="25491237#4"/>
    <trip id="195" depart="702.00" from="68546140" to="29999825#4"/>
    <trip id="196" depart="705.60" from="25491351#0" to="29999825#4"/>
    <trip id="198" depart="712.80" from="279297825#0" to="29999825#4"/>
    <trip id="199" depart="716.40" from="35829777#0" to="278015286"/>
    <trip id="200" depart="720.00" from="279297825#0" to="23058448"/>
    <trip id="202" depart="727.20" from="68546136#0" to="23058448"/>
    <trip id="204" depart="734.40" from="35829777#0" to="25491237#4"/>
    <trip id="205" depart="738.00" from="68546136#0" to="35829592#3"/>
    <trip id="206" depart="741.60" from="540392791#0" to="23058448"/>
    <trip id="207" depart="745.20" from="-35829816" to="23058439"/>
    <trip id="208" depart="748.80" from="25491351#0" to="278015286"/>
    <trip id="210" depart="756.00" from="279297825#0" to="30969502#1"/>
    <trip id="212" depart="763.20" from="34080354" to="23058448"/>
    <trip id="214" depart="770.40" from="540392791#0" to="35829592#3"/>
    <trip id="216" depart="777.60" from="-35829816" to="35829816"/>
    <trip id="218" depart="784.80" from="25491351#0" to="35829592#3"/>
    <trip id="219" depart="788.40" from="34080354" to="35829592#3"/>
    <trip id="222" depart="799.20" from="68546140" to="29999825#4"/>
    <trip id="223" depart="802.80" from="540392791#0" to="29999825#4"/>
    <trip id="224" depart="806.40" from="68546136#0" to="29999825#4"/>
    <trip id="226" depart="813.60" from="34080354" to="25491237#4"/>
    <trip id="227" depart="817.20" from="25491351#0" to="30969502#1"/>
    <trip id="228" depart="820.80" from="540392791#0" to="29999825#4"/>
    <trip id="229" depart="824.40" from="35829777#0" to="25491237#4"/>
    <trip id="231" depart="831.60" from="25491351#0" to="25491237#4"/>
    <trip id="232" depart="835.20" from="34080354" to="23058448"/>
    <trip id="233" depart="838.80" from="25491351#0" to="30969502#1"/>
    <trip id="235" depart="846.00" from="279297825#0" to="29999825#4"/>
    <trip id="236" depart="849.60" from="279297825#0" to="23058448"/>
    <trip id="238" depart="856.80" from="35829777#0" to="30969502#1"/>
    <trip id="239" depart="860.40" from="68546136#0" to="35829592#3"/>
    <trip id="241" depart="867.60" from="279297825#0" to="35829592#3"/>
    <trip id="243" depart="874.80" from="279297825#0" to="30969502#1"/>
    <trip id="244" depart="878.40" from="34080354" to="29999825#4"/>
    <trip id="247" depart="889.20" from="279297825#0" to="30969502#1"/>
    <trip id="248" depart="892.80" from="279297825#0" to="23058448"/>
    <trip id="249" depart="896.40" from="34080354" to="23058448"/>
    <trip id="251" depart="903.60" from="279297825#0" to="29999825#4"/>
    <trip id="256" depart="921.60" from="540392791#0" to="278015286"/>
    <trip id="257" depart="925.20" from="540392791#0" to="35829592#3"/>
    <trip id="261" depart="939.60" from="35829777#0" to="35829592#3"/>
    <trip id="262" depart="943.20" from="35829777#0" to="35829592#3"/>
    <trip id="266" depart="957.60" from="35829777#0" to="23058448"/>
    <trip id="267" depart="961.20" from="540392791#0" to="35829592#3"/>
    <trip id="271" depart="975.60" from="-23058439" to="23058439"/>
    <trip id="272" depart="979.20" from="25491351#0" to="30969502#1"/>
    <trip id="275" depart="990.00" from="540392791#0" to="30969502#1"/>
    <trip id="277" depart="997.20" from="68546136#0" to="29999825#4"/>
    <trip id="278" depart="1000.80" from="-35829816" to="35829816"/>
    <trip id="279" depart="1004.40" from="68546136#0" to="25491237#4"/>
    <trip id="280" depart="1008.00" from="279297825#0" to="25491237#4"/>
    <trip id="281" depart="1011.60" from="34080354" to="25491237#4"/>
    <trip id="282" depart="1015.20" from="68546136#0" to="35829592#3"/>
    <trip id="283" depart="1018.80" from="-23058439" to="35829816"/>
    <trip id="284" depart="1022.40" from="35829777#0" to="35829592#3"/>
    <trip id="285" depart="1026.00" from="540392791#0" to="278015286"/>
    <trip id="287" depart="1033.20" from="25491351#0" to="35829592#3"/>
    <trip id="288" depart="1036.80" from="34080354" to="278015286"/>
    <trip id="289" depart="1040.40" from="279297825#0" to="30969502#1"/>
    <trip id="290" depart="1044.00" from="25491351#0" to="35829592#3"/>
    <trip id="292" depart="1051.20" from="68546136#0" to="23058448"/>
    <trip id="293" depart="1054.80" from="34080354" to="29999825#4"/>
    <trip id="295" depart="1062.00" from="68546136#0" to="23058448"/>
    <trip id="298" depart="1072.80" from="540392791#0" to="25491237#4"/>
    <trip id="299" depart="1076.40" from="-23058439" to="35829816"/>
    <trip id="301" depart="1083.60" from="34080354" to="35829592#3"/>
    <trip id="302" depart="1087.20" from="540392791#0" to="30969502#1"/>
    <trip id="303" depart="1090.80" from="34080354" to="35829592#3"/>
    <trip id="305" depart="1098.00" from="540392791#0" to="25491237#4"/>
    <trip id="306" depart="1101.60" from="35829777#0" to="278015286"/>
    <trip id="307" depart="1105.20" from="34080354" to="278015286"/>
    <trip id="308" depart="1108.80" from="540392791#0" to="25491237#4"/>
    <trip id="309" depart="1112.40" from="540392791#0" to="25491237#4"/>
    <trip id="311" depart="1119.60" from="-35829816" to="23058439"/>
    <trip id="312" depart="1123.20" from="34080354" to="35829592#3"/>
    <trip id="314" depart="1130.40" from="34080354" to="30969502#1"/>
    <trip id="315" depart="1134.00" from="68546140" to="29999825#4"/>
    <trip id="318" depart="1144.80" from="-35829816" to="23058439"/>
    <trip id="319" depart="1148.40" from="34080354" to="25491237#4"/>
    <trip id="320" depart="1152.00" from="68546140" to="29999825#4"/>
    <trip id="321" depart="1155.60" from="540392791#0" to="23058448"/>
    <trip id="322" depart="1159.20" from="68546136#0" to="278015286"/>
    <trip id="323" depart="1162.80" from="68546136#0" to="29999825#4"/>
    <trip id="324" depart="1166.40" from="34080354" to="278015286"/>
    <trip id="325" depart="1170.00" from="-35829816" to="23058439"/>
    <trip id="327" depart="1177.20" from="68546136#0" to="278015286"/>
    <trip id="330" depart="1188.00" from="35829777#0" to="25491237#4"/>
    <trip id="332" depart="1195.20" from="540392791#0" to="29999825#4"/>
    <trip id="333" depart="1198.80" from="68546136#0" to="23058448"/>
    <trip id="334" depart="1202.40" from="34080354" to="278015286"/>
    <trip id="335" depart="1206.00" from="279297825#0" to="35829592#3"/>
    <trip id="337" depart="1213.20" from="35829777#0" to="29999825#4"/>
    <trip id="340" depart="1224.00" from="35829777#0" to="23058448"/>
    <trip id="341" depart="1227.60" from="-35829816" to="23058439"/>
    <trip id="343" depart="1234.80" from="35829777#0" to="25491237#4"/>
    <trip id="344" depart="1238.40" from="25491351#0" to="30969502#1"/>
    <trip id="345" depart="1242.00" from="540392791#0" to="278015286"/>
    <trip id="347" depart="1249.20" from="68546136#0" to="30969502#1"/>
    <trip id="349" depart="1256.40" from="279297825#0" to="29999825#4"/>
    <trip id="353" depart="1270.80" from="540392791#0" to="29999825#4"/>
    <trip id="355" depart="1278.00" from="540392791#0" to="30969502#1"/>
    <trip id="356" depart="1281.60" from="68546140" to="29999825#4"/>
    <trip id="359" depart="1292.40" from="25491351#0" to="25491237#4"/>
    <trip id="360" depart="1296.00" from="-23058439" to="35829816"/>
    <trip id="361" depart="1299.60" from="68546136#0" to="29999825#4"/>
    <trip id="363" depart="1306.80" from="540392791#0" to="25491237#4"/>
    <trip id="365" depart="1314.00" from="34080354" to="30969502#1"/>
    <trip id="367" depart="1321.20" from="35829777#0" to="30969502#1"/>
    <trip id="369" depart="1328.40" from="279297825#0" to="25491237#4"/>
    <trip id="370" depart="1332.00" from="540392791#0" to="35829592#3"/>
    <trip id="371" depart="1335.60" from="25491351#0" to="30969502#1"/>
    <trip id="373" depart="1342.80" from="68546136#0" to="29999825#4"/>
    <trip id="374" depart="1346.40" from="34080354" to="25491237#4"/>
    <trip id="376" depart="1353.60" from="279297825#0" to="29999825#4"/>
    <trip id="378" depart="1360.80" from="34080354" to="278015286"/>
    <trip id="380" depart="1368.00" from="540392791#0" to="30969502#1"/>
    <trip id="381" depart="1371.60" from="540392791#0" to="23058448"/>
    <trip id="383" depart="1378.80" from="279297825#0" to="30969502#1"/>
    <trip id="384" depart="1382.40" from="-35829816" to="35829816"/>
    <trip id="385" depart="1386.00" from="35829777#0" to="23058448"/>
    <trip id="390" depart="1404.00" from="68546136#0" to="278015286"/>
    <trip id="391" depart="1407.60" from="540392791#0" to="29999825#4"/>
    <trip id="392" depart="1411.20" from="25491351#0" to="35829592#3"/>
    <trip id="394" depart="1418.40" from="34080354" to="278015286"/>
    <trip id="395" depart="1422.00" from="68546140" to="29999825#4"/>
    <trip id="396" depart="1425.60" from="68546136#0" to="35829592#3"/>
    <trip id="397" depart="1429.20" from="25491351#0" to="35829592#3"/>
    <trip id="399" depart="1436.40" from="34080354" to="35829592#3"/>
    <trip id="400" depart="1440.00" from="25491351#0" to="25491237#4"/>
    <trip id="402" depart="1447.20" from="34080354" to="23058448"/>
    <trip id="403" depart="1450.80" from="34080354" to="25491237#4"/>
    <trip id="404" depart="1454.40" from="34080354" to="29999825#4"/>
    <trip id="405" depart="1458.00" from="34080354" to="25491237#4"/>
    <trip id="407" depart="1465.20" from="35829777#0" to="23058448"/>
    <trip id="409" depart="1472.40" from="540392791#0" to="30969502#1"/>
    <trip id="410" depart="1476.00" from="68546136#0" to="278015286"/>
    <trip id="411" depart="1479.60" from="35829777#0" to="35829592#3"/>
    <trip id="414" depart="1490.40" from="35829777#0" to="35829592#3"/>
    <trip id="415" depart="1494.00" from="68546136#0" to="278015286"/>
    <trip id="416" depart="1497.60" from="34080354" to="278015286"/>
    <trip id="417" depart="1501.20" from="540392791#0" to="278015286"/>
    <trip id="418" depart="1504.80" from="35829777#0" to="23058448"/>
    <trip id="420" depart="1512.00" from="279297825#0" to="30969502#1"/>
    <trip id="421" depart="1515.60" from="35829777#0" to="35829592#3"/>
    <trip id="422" depart="1519.20" from="68546136#0" to="35829592#3"/>
    <trip id="423" depart="1522.80" from="279297825#0" to="25491237#4"/>
    <trip id="424" depart="1526.40" from="540392791#0" to="35829592#3"/>
    <trip id="428" depart="1540.80" from="540392791#0" to="278015286"/>
    <trip id="430" depart="1548.00" from="68546136#0" to="278015286"/>
    <trip id="433" depart="1558.80" from="25491351#0" to="25491237#4"/>
    <trip id="435" depart="1566.00" from="35829777#0" to="35829592#3"/>
    <trip id="436" depart="1569.60" from="-35829816" to="23058439"/>
    <trip id="437" depart="1573.20" from="68546136#0" to="29999825#4"/>
    <trip id="440" depart="1584.00" from="25491351#0" to="25491237#4"/>
    <trip id="444" depart="1598.40" from="279297825#0" to="29999825#4"/>
    <trip id="445" depart="1602.00" from="35829777#0" to="278015286"/>
    <trip id="446" depart="1605.60" from="25491351#0" to="35829592#3"/>
    <trip id="448" depart="1612.80" from="34080354" to="23058448"/>
    <trip id="449" depart="1616.40" from="35829777#0" to="29999825#4"/>
    <trip id="452" depart="1627.20" from="25491351#0" to="29999825#4"/>
    <trip id="453" depart="1630.80" from="540392791#0" to="30969502#1"/>
    <trip id="456" depart="1641.60" from="25491351#0" to="35829592#3"/>
    <trip id="457" depart="1645.20" from="35829777#0" to="25491237#4"/>
    <trip id="458" depart="1648.80" from="35829777#0" to="29999825#4"/>
    <trip id="459" depart="1652.40" from="540392791#0" to="30969502#1"/>
    <trip id="460" depart="1656.00" from="35829777#0" to="35829592#3"/>
    <trip id="462" depart="1663.20" from="35829777#0" to="25491237#4"/>
    <trip id="463" depart="1666.80" from="279297825#0" to="29999825#4"/>
    <trip id="465" depart="1674.00" from="25491351#0" to="30969502#1"/>
    <trip id="469" depart="1688.40" from="68546136#0" to="25491237#4"/>
    <trip id="470" depart="1692.00" from="68546136#0" to="278015286"/>
    <trip id="471" depart="1695.60" from="68546136#0" to="30969502#1"/>
    <trip id="477" depart="1717.20" from="279297825#0" to="35829592#3"/>
    <trip id="479" depart="1724.40" from="34080354" to="30969502#1"/>
    <trip id="480" depart="1728.00" from="540392791#0" to="29999825#4"/>
    <trip id="483" depart="1738.80" from="-23058439" to="35829816"/>
    <trip id="485" depart="1746.00" from="-35829816" to="23058439"/>
    <trip id="487" depart="1753.20" from="25491351#0" to="278015286"/>
    <trip id="488" depart="1756.80" from="-35829816" to="35829816"/>
    <trip id="489" depart="1760.40" from="25491351#0" to="278015286"/>
    <trip id="490" depart="1764.00" from="-23058439" to="35829816"/>
    <trip id="492" depart="1771.20" from="540392791#0" to="30969502#1"/>
    <trip id="494" depart="1778.40" from="540392791#0" to="23058448"/>
    <trip id="496" depart="1785.60" from="34080354" to="278015286"/>
    <trip id="498" depart="1792.80" from="279297825#0" to="278015286"/>
    <trip id="502" depart="1807.20" from="279297825#0" to="278015286"/>
    <trip id="503" depart="1810.80" from="-35829816" to="23058439"/>
    <trip id="504" depart="1814.40" from="68546136#0" to="278015286"/>
    <trip id="505" depart="1818.00" from="35829777#0" to="30969502#1"/>
    <trip id="507" depart="1825.20" from="68546136#0" to="23058448"/>
    <trip id="511" depart="1839.60" from="68546136#0" to="25491237#4"/>
    <trip id="512" depart="1843.20" from="-35829816" to="35829816"/>
    <trip id="515" depart="1854.00" from="25491351#0" to="23058448"/>
    <trip id="518" depart="1864.80" from="25491351#0" to="25491237#4"/>
    <trip id="519" depart="1868.40" from="-35829816" to="23058439"/>
    <trip id="520" depart="1872.00" from="540392791#0" to="29999825#4"/>
    <trip id="521" depart="1875.60" from="540392791#0" to="278015286"/>
    <trip id="522" depart="1879.20" from="68546136#0" to="29999825#4"/>
    <trip id="525" depart="1890.00" from="68546136#0" to="35829592#3"/>
    <trip id="526" depart="1893.60" from="34080354" to="278015286"/>
    <trip id="528" depart="1900.80" from="34080354" to="278015286"/>
    <trip id="529" depart="1904.40" from="540392791#0" to="278015286"/>
    <trip id="533" depart="1918.80" from="35829777#0" to="29999825#4"/>
    <trip id="535" depart="1926.00" from="34080354" to="278015286"/>
    <trip id="537" depart="1933.20" from="540392791#0" to="35829592#3"/>
    <trip id="538" depart="1936.80" from="35829777#0" to="35829592#3"/>
    <trip id="539" depart="1940.40" from="540392791#0" to="23058448"/>
    <trip id="540" depart="1944.00" from="34080354" to="23058448"/>
    <trip id="541" depart="1947.60" from="279297825#0" to="278015286"/>
    <trip id="543" depart="1954.80" from="279297825#0" to="30969502#1"/>
    <trip id="544" depart="1958.40" from="279297825#0" to="23058448"/>
    <trip id="548" depart="1972.80" from="68546136#0" to="29999825#4"/>
    <trip id="549" depart="1976.40" from="35829777#0" to="29999825#4"/>
    <trip id="551" depart="1983.60" from="279297825#0" to="30969502#1"/>
    <trip id="552" depart="1987.20" from="540392791#0" to="35829592#3"/>
    <trip id="554" depart="1994.40" from="35829777#0" to="25491237#4"/>
    <trip id="555" depart="1998.00" from="35829777#0" to="23058448"/>
    <trip id="556" depart="2001.60" from="35829777#0" to="23058448"/>
    <trip id="558" depart="2008.80" from="279297825#0" to="35829592#3"/>
    <trip id="559" depart="2012.40" from="35829777#0" to="35829592#3"/>
    <trip id="561" depart="2019.60" from="68546136#0" to="29999825#4"/>
    <trip id="564" depart="2030.40" from="25491351#0" to="23058448"/>
    <trip id="565" depart="2034.00" from="540392791#0" to="25491237#4"/>
    <trip id="567" depart="2041.20" from="68546136#0" to="29999825#4"/>
    <trip id="568" depart="2044.80" from="279297825#0" to="23058448"/>
    <trip id="570" depart="2052.00" from="540392791#0" to="23058448"/>
    <trip id="571" depart="2055.60" from="279297825#0" to="25491237#4"/>
    <trip id="572" depart="2059.20" from="279297825#0" to="30969502#1"/>
    <trip id="573" depart="2062.80" from="540392791#0" to="29999825#4"/>
    <trip id="574" depart="2066.40" from="-23058439" to="23058439"/>
    <trip id="576" depart="2073.60" from="540392791#0" to="25491237#4"/>
    <trip id="577" depart="2077.20" from="35829777#0" to="278015286"/>
    <trip id="578" depart="2080.80" from="279297825#0" to="25491237#4"/>
    <trip id="580" depart="2088.00" from="279297825#0" to="25491237#4"/>
    <trip id="581" depart="2091.60" from="540392791#0" to="278015286"/>
    <trip id="583" depart="2098.80" from="279297825#0" to="29999825#4"/>
    <trip id="586" depart="2109.60" from="25491351#0" to="25491237#4"/>
    <trip id="589" depart="2120.40" from="540392791#0" to="29999825#4"/>
    <trip id="590" depart="2124.00" from="68546136#0" to="35829592#3"/>
    <trip id="592" depart="2131.20" from="-23058439" to="23058439"/>
    <trip id="594" depart="2138.40" from="35829777#0" to="29999825#4"/>
    <trip id="595" depart="2142.00" from="540392791#0" to="278015286"/>
    <trip id="596" depart="2145.60" from="-35829816" to="23058439"/>
    <trip id="597" depart="2149.20" from="25491351#0" to="35829592#3"/>
    <trip id="598" depart="2152.80" from="35829777#0" to="35829592#3"/>
    <trip id="600" depart="2160.00" from="68546136#0" to="23058448"/>
    <trip id="601" depart="2163.60" from="35829777#0" to="29999825#4"/>
    <trip id="602" depart="2167.20" from="279297825#0" to="25491237#4"/>
    <trip id="603" depart="2170.80" from="279297825#0" to="25491237#4"/>
    <trip id="607" depart="2185.20" from="540392791#0" to="35829592#3"/>
    <trip id="608" depart="2188.80" from="68546136#0" to="23058448"/>
    <trip id="610" depart="2196.00" from="35829777#0" to="35829592#3"/>
    <trip id="611" depart="2199.60" from="35829777#0" to="23058448"/>
    <trip id="612" depart="2203.20" from="540392791#0" to="278015286"/>
    <trip id="613" depart="2206.80" from="540392791#0" to="35829592#3"/>
    <trip id="615" depart="2214.00" from="35829777#0" to="30969502#1"/>
    <trip id="616" depart="2217.60" from="35829777#0" to="35829592#3"/>
    <trip id="617" depart="2221.20" from="35829777#0" to="23058448"/>
    <trip id="619" depart="2228.40" from="25491351#0" to="25491237#4"/>
    <trip id="621" depart="2235.60" from="25491351#0" to="278015286"/>
    <trip id="624" depart="2246.40" from="68546136#0" to="29999825#4"/>
    <trip id="625" depart="2250.00" from="34080354" to="278015286"/>
    <trip id="626" depart="2253.60" from="34080354" to="35829592#3"/>
    <trip id="628" depart="2260.80" from="68546136#0" to="30969502#1"/>
    <trip id="629" depart="2264.40" from="25491351#0" to="278015286"/>
    <trip id="630" depart="2268.00" from="-35829816" to="23058439"/>
    <trip id="631" depart="2271.60" from="-23058439" to="35829816"/>
    <trip id="632" depart="2275.20" from="279297825#0" to="30969502#1"/>
    <trip id="633" depart="2278.80" from="34080354" to="23058448"/>
    <trip id="634" depart="2282.40" from="25491351#0" to="278015286"/>
    <trip id="635" depart="2286.00" from="279297825#0" to="29999825#4"/>
    <trip id="637" depart="2293.20" from="25491351#0" to="278015286"/>
    <trip id="638" depart="2296.80" from="279297825#0" to="29999825#4"/>
    <trip id="639" depart="2300.40" from="68546136#0" to="30969502#1"/>
    <trip id="640" depart="2304.00" from="-23058439" to="23058439"/>
    <trip id="641" depart="2307.60" from="540392791#0" to="25491237#4"/>
    <trip id="642" depart="2311.20" from="540392791#0" to="30969502#1"/>
    <trip id="644" depart="2318.40" from="279297825#0" to="29999825#4"/>
    <trip id="647" depart="2329.20" from="279297825#0" to="29999825#4"/>
    <trip id="649" depart="2336.40" from="279297825#0" to="35829592#3"/>
    <trip id="650" depart="2340.00" from="68546136#0" to="30969502#1"/>
    <trip id="651" depart="2343.60" from="68546136#0" to="30969502#1"/>
    <trip id="652" depart="2347.20" from="540392791#0" to="29999825#4"/>
    <trip id="653" depart="2350.80" from="35829777#0" to="278015286"/>
    <trip id="654" depart="2354.40" from="279297825#0" to="25491237#4"/>
    <trip id="657" depart="2365.20" from="25491351#0" to="23058448"/>
    <trip id="662" depart="2383.20" from="540392791#0" to="23058448"/>
    <trip id="663" depart="2386.80" from="279297825#0" to="23058448"/>
    <trip id="664" depart="2390.40" from="68546136#0" to="35829592#3"/>
    <trip id="665" depart="2394.00" from="68546136#0" to="23058448"/>
    <trip id="666" depart="2397.60" from="279297825#0" to="278015286"/>
    <trip id="667" depart="2401.20" from="540392791#0" to="23058448"/>
    <trip id="668" depart="2404.80" from="279297825#0" to="25491237#4"/>
    <trip id="669" depart="2408.40" from="540392791#0" to="278015286"/>