<?xml version="1.0" encoding="UTF-8"?>

<!-- generated on 2024-09-03 01:38:50 by Eclipse SUMO netconvert Version 1.20.0
<configuration xmlns:xsi="http://www.w3.org/2001/XMLSchema-instance" xsi:noNamespaceSchemaLocation="http://sumo.dlr.de/xsd/netconvertConfiguration.xsd">

    <input>
        <osm-files value="train_files/intersection/hard/osm_files/map(88).osm"/>
    </input>

    <output>
        <output-file value="train_files/intersection/hard/outputs/map(88)_dict/map(88)/map(88).net.xml"/>
    </output>

    <projection>
        <proj.utm value="true"/>
    </projection>

    <building_defaults>
        <default.junctions.keep-clear value="false"/>
    </building_defaults>

</configuration>
-->

<net version="1.20" junctionCornerDetail="5" limitTurnSpeed="5.50" xmlns:xsi="http://www.w3.org/2001/XMLSchema-instance" xsi:noNamespaceSchemaLocation="http://sumo.dlr.de/xsd/net_file.xsd">

    <location netOffset="-406936.88,-5794421.36" convBoundary="0.00,0.00,1839.49,1412.16" origBoundary="7.635067,52.292293,7.662360,52.304948" projParameter="+proj=utm +zone=32 +ellps=WGS84 +datum=WGS84 +units=m +no_defs"/>

    <type id="highway.cycleway" priority="1" numLanes="1" speed="5.56" allow="bicycle" oneway="0" width="2.00"/>
    <type id="highway.path" priority="1" numLanes="1" speed="5.56" allow="pedestrian bicycle" oneway="0" width="2.00"/>
    <type id="highway.secondary" priority="11" numLanes="1" speed="27.78" disallow="tram rail_urban rail rail_electric rail_fast ship container cable_car subway aircraft wheelchair scooter drone" oneway="0"/>
    <type id="highway.service" priority="1" numLanes="1" speed="5.56" allow="pedestrian delivery bicycle" oneway="0"/>
    <type id="highway.tertiary" priority="10" numLanes="1" speed="22.22" disallow="tram rail_urban rail rail_electric rail_fast ship container cable_car subway aircraft wheelchair scooter drone" oneway="0"/>
    <type id="highway.unclassified" priority="4" numLanes="1" speed="13.89" disallow="tram rail_urban rail rail_electric rail_fast ship container cable_car subway aircraft wheelchair scooter drone" oneway="0"/>

    <edge id=":1019641945_0" function="internal">
        <lane id=":1019641945_0_0" index="0" allow="pedestrian bicycle" speed="4.81" length="4.56" width="1.00" shape="685.02,789.74 684.00,789.23 683.02,789.23 682.08,789.75 681.17,790.77"/>
    </edge>
    <edge id=":1019641945_1" function="internal">
        <lane id=":1019641945_1_0" index="0" disallow="tram rail_urban rail rail_electric rail_fast ship container cable_car subway aircraft wheelchair scooter drone" speed="8.33" length="5.63" shape="685.02,789.74 680.40,786.53"/>
    </edge>
    <edge id=":1019641945_2" function="internal">
        <lane id=":1019641945_2_0" index="0" allow="pedestrian bicycle" speed="5.89" length="1.85" width="1.00" shape="685.02,789.74 683.94,788.43 683.93,788.28"/>
    </edge>
    <edge id=":1019641945_14" function="internal">
        <lane id=":1019641945_14_0" index="0" allow="pedestrian bicycle" speed="5.89" length="6.39" width="1.00" shape="683.93,788.28 683.86,786.85 684.79,784.99 686.73,782.86"/>
    </edge>
    <edge id=":1019641945_3" function="internal">
        <lane id=":1019641945_3_0" index="0" allow="pedestrian bicycle" speed="4.12" length="4.26" width="1.00" shape="687.41,783.59 686.50,784.64 686.11,785.58 686.25,786.42 686.92,787.16"/>
    </edge>
    <edge id=":1019641945_4" function="internal">
        <lane id=":1019641945_4_0" index="0" allow="pedestrian bicycle" speed="5.56" length="9.55" width="1.00" shape="687.41,783.59 685.35,785.53 684.00,786.93 682.80,788.45 681.17,790.77"/>
    </edge>
    <edge id=":1019641945_5" function="internal">
        <lane id=":1019641945_5_0" index="0" allow="pedestrian bicycle" speed="6.57" length="8.06" width="1.00" shape="687.41,783.59 685.20,785.43 683.29,786.53 681.69,786.90 680.40,786.53"/>
    </edge>
    <edge id=":1019641945_6" function="internal">
        <lane id=":1019641945_6_0" index="0" allow="pedestrian bicycle" speed="2.04" length="1.46" width="1.00" shape="687.41,783.59 686.97,783.67 686.71,783.57 686.63,783.30 686.73,782.86"/>
    </edge>
    <edge id=":1019641945_7" function="internal">
        <lane id=":1019641945_7_0" index="0" allow="pedestrian bicycle" speed="5.55" length="5.09" width="1.00" shape="682.14,783.84 683.21,784.29 684.33,784.27 685.51,783.80 686.73,782.86"/>
    </edge>
    <edge id=":1019641945_8" function="internal">
        <lane id=":1019641945_8_0" index="0" disallow="tram rail_urban rail rail_electric rail_fast ship container cable_car subway aircraft wheelchair scooter drone" speed="8.33" length="5.82" shape="682.14,783.84 686.92,787.16"/>
    </edge>
    <edge id=":1019641945_9" function="internal">
        <lane id=":1019641945_9_0" index="0" allow="pedestrian bicycle" speed="6.03" length="1.72" width="1.00" shape="682.14,783.84 683.07,784.91 683.10,785.21"/>
    </edge>
    <edge id=":1019641945_15" function="internal">
        <lane id=":1019641945_15_0" index="0" allow="pedestrian bicycle" speed="6.03" length="6.05" width="1.00" shape="683.10,785.21 683.21,786.43 682.58,788.38 681.17,790.77"/>
    </edge>
    <edge id=":1019641945_10" function="internal">
        <lane id=":1019641945_10_0" index="0" allow="pedestrian bicycle" speed="4.30" length="4.17" width="1.00" shape="680.35,790.21 681.02,789.01 681.25,788.00 681.04,787.18 680.40,786.53"/>
    </edge>
    <edge id=":1019641945_11" function="internal">
        <lane id=":1019641945_11_0" index="0" allow="pedestrian bicycle" speed="5.56" length="9.77" width="1.00" shape="680.35,790.21 682.01,787.83 683.24,786.27 684.62,784.84 686.73,782.86"/>
    </edge>
    <edge id=":1019641945_12" function="internal">
        <lane id=":1019641945_12_0" index="0" allow="pedestrian bicycle" speed="5.90" length="8.14" width="1.00" shape="680.35,790.21 682.11,788.06 683.79,786.83 685.39,786.53 686.92,787.16"/>
    </edge>
    <edge id=":1019641945_13" function="internal">
        <lane id=":1019641945_13_0" index="0" allow="pedestrian bicycle" speed="2.04" length="1.46" width="1.00" shape="680.35,790.21 680.77,790.04 681.04,790.08 681.18,790.32 681.17,790.77"/>
    </edge>
    <edge id=":1019642298_0" function="internal">
        <lane id=":1019642298_0_0" index="0" allow="bicycle" speed="5.56" length="6.80" width="1.00" shape="935.81,607.01 933.79,607.21 932.39,607.33 931.05,607.66 929.23,608.48"/>
    </edge>
    <edge id=":1019642298_1" function="internal">
        <lane id=":1019642298_1_0" index="0" allow="bicycle" speed="5.56" length="6.37" width="2.00" shape="935.81,607.01 934.42,607.02 932.98,606.69 931.48,606.01 929.93,604.98"/>
    </edge>
    <edge id=":1019642298_2" function="internal">
        <lane id=":1019642298_2_0" index="0" allow="bicycle" speed="2.89" length="2.92" width="2.00" shape="935.81,607.01 934.99,606.61 934.68,606.15 934.86,605.62 935.53,605.03"/>
    </edge>
    <edge id=":1019642298_3" function="internal">
        <lane id=":1019642298_3_0" index="0" allow="bicycle" speed="5.56" length="4.80" width="2.00" shape="931.13,603.39 932.35,604.20 933.48,604.75 934.55,605.02 935.53,605.03"/>
    </edge>
    <edge id=":1019642298_4" function="internal">
        <lane id=":1019642298_4_0" index="0" allow="bicycle" speed="4.96" length="6.95" width="1.00" shape="931.13,603.39 932.22,604.62 932.26,605.88 931.27,607.17 929.23,608.48"/>
    </edge>
    <edge id=":1019642298_5" function="internal">
        <lane id=":1019642298_5_0" index="0" allow="bicycle" speed="2.89" length="2.92" width="2.00" shape="931.13,603.39 931.43,604.24 931.33,604.79 930.82,605.04 929.93,604.98"/>
    </edge>
    <edge id=":1019642298_6" function="internal">
        <lane id=":1019642298_6_0" index="0" allow="bicycle" speed="4.00" length="4.66" width="1.00" shape="929.23,608.48 930.46,607.65 930.98,606.79 930.80,605.90 929.93,604.98"/>
    </edge>
    <edge id=":1019642298_7" function="internal">
        <lane id=":1019642298_7_0" index="0" allow="bicycle" speed="5.56" length="7.29" width="1.00" shape="929.23,608.48 931.06,607.31 932.24,606.32 933.49,605.54 935.53,605.03"/>
    </edge>
    <edge id=":1019642298_8" function="internal">
        <lane id=":1019642298_8_0" index="0" allow="pedestrian bicycle" speed="2.04" length="1.46" width="1.00" shape="929.00,608.04 929.45,608.08 929.68,608.25 929.68,608.53 929.46,608.92"/>
    </edge>
    <edge id=":1911934374_0" function="internal">
        <lane id=":1911934374_0_0" index="0" allow="bicycle" speed="2.89" length="2.92" width="2.00" shape="894.30,536.77 895.04,536.25 895.59,536.20 895.97,536.61 896.16,537.49"/>
    </edge>
    <edge id=":1925853688_0" function="internal">
        <lane id=":1925853688_0_0" index="0" allow="bicycle" speed="2.89" length="2.92" width="2.00" shape="1838.83,225.07 1839.73,224.96 1840.24,225.17 1840.38,225.71 1840.14,226.58"/>
    </edge>
    <edge id=":2069949402_0" function="internal">
        <lane id=":2069949402_0_0" index="0" allow="pedestrian bicycle" speed="2.04" length="1.46" width="1.00" shape="0.49,1412.26 0.17,1412.58 -0.09,1412.65 -0.32,1412.48 -0.49,1412.07"/>
    </edge>
    <edge id=":295696846_0" function="internal">
        <lane id=":295696846_0_0" index="0" disallow="tram rail_urban rail rail_electric rail_fast ship container cable_car subway aircraft wheelchair scooter drone" speed="8.06" length="13.54" width="3.00" shape="940.92,628.61 938.30,626.07 935.43,624.90 932.33,625.10 929.00,626.68"/>
    </edge>
    <edge id=":295696846_1" function="internal">
        <lane id=":295696846_1_0" index="0" disallow="tram rail_urban rail rail_electric rail_fast ship container cable_car subway aircraft wheelchair scooter drone" speed="15.28" length="17.55" shape="940.92,628.61 938.11,625.59 934.64,622.54 931.04,619.60 927.87,616.90"/>
    </edge>
    <edge id=":295696846_2" function="internal">
        <lane id=":295696846_2_0" index="0" disallow="tram rail_urban rail rail_electric rail_fast ship container cable_car subway aircraft wheelchair scooter drone" speed="7.77" length="15.39" width="2.00" shape="940.92,628.61 938.46,624.53 937.87,621.03 939.15,618.13 942.30,615.82"/>
    </edge>
    <edge id=":295696846_3" function="internal">
        <lane id=":295696846_3_0" index="0" disallow="tram rail_urban rail rail_electric rail_fast ship container cable_car subway aircraft wheelchair scooter drone" speed="3.68" length="4.80" shape="940.92,628.61 940.49,627.19 940.69,626.30 941.52,625.92 943.00,626.06"/>
    </edge>
    <edge id=":295696846_4" function="internal">
        <lane id=":295696846_4_0" index="0" disallow="tram rail_urban rail rail_electric rail_fast ship container cable_car subway aircraft wheelchair scooter drone" speed="5.76" length="8.35" shape="944.39,619.25 942.49,620.57 941.62,622.14 941.79,623.97 943.00,626.06"/>
    </edge>
    <edge id=":295696846_5" function="internal">
        <lane id=":295696846_5_0" index="0" disallow="tram rail_urban rail rail_electric rail_fast ship container cable_car subway aircraft wheelchair scooter drone" speed="27.78" length="17.10" width="3.00" shape="944.39,619.25 939.34,621.62 935.39,623.36 932.09,624.90 929.00,626.68"/>
    </edge>
    <edge id=":295696846_6" function="internal">
        <lane id=":295696846_6_0" index="0" disallow="tram rail_urban rail rail_electric rail_fast ship container cable_car subway aircraft wheelchair scooter drone" speed="10.00" length="1.00" shape="943.34,617.54 942.41,617.89"/>
    </edge>
    <edge id=":295696846_7" function="internal">
        <lane id=":295696846_7_0" index="0" disallow="tram rail_urban rail rail_electric rail_fast ship container cable_car subway aircraft wheelchair scooter drone" speed="2.89" length="2.56" width="2.00" shape="943.34,617.54 942.44,617.50 941.96,617.20 941.92,616.64 942.14,616.16"/>
    </edge>
    <edge id=":295696846_16" function="internal">
        <lane id=":295696846_16_0" index="0" disallow="tram rail_urban rail rail_electric rail_fast ship container cable_car subway aircraft wheelchair scooter drone" speed="10.00" length="15.50" shape="942.41,617.89 938.78,619.27 934.69,619.74 931.05,618.95 927.87,616.90"/>
    </edge>
    <edge id=":295696846_17" function="internal">
        <lane id=":295696846_17_0" index="0" disallow="tram rail_urban rail rail_electric rail_fast ship container cable_car subway aircraft wheelchair scooter drone" speed="2.89" length="0.37" width="2.00" shape="942.14,616.16 942.30,615.82"/>
    </edge>
    <edge id=":295696846_8" function="internal">
        <lane id=":295696846_8_0" index="0" disallow="tram rail_urban rail rail_electric rail_fast ship container cable_car subway aircraft wheelchair scooter drone" speed="9.09" length="13.27" width="2.00" shape="929.95,614.46 932.71,616.36 935.69,617.22 938.89,617.04 942.30,615.82"/>
    </edge>
    <edge id=":295696846_9" function="internal">
        <lane id=":295696846_9_0" index="0" disallow="tram rail_urban rail rail_electric rail_fast ship container cable_car subway aircraft wheelchair scooter drone" speed="15.28" length="17.48" shape="929.95,614.46 933.12,617.14 936.71,620.04 940.18,623.05 943.00,626.06"/>
    </edge>
    <edge id=":295696846_10" function="internal">
        <lane id=":295696846_10_0" index="0" disallow="tram rail_urban rail rail_electric rail_fast ship container cable_car subway aircraft wheelchair scooter drone" speed="7.56" length="14.97" width="3.00" shape="929.95,614.46 932.67,617.75 933.42,620.89 932.19,623.86 929.00,626.68"/>
    </edge>
    <edge id=":295696846_11" function="internal">
        <lane id=":295696846_11_0" index="0" disallow="tram rail_urban rail rail_electric rail_fast ship container cable_car subway aircraft wheelchair scooter drone" speed="3.65" length="4.68" shape="929.95,614.46 930.35,615.85 930.13,616.72 929.31,617.07 927.87,616.90"/>
    </edge>
    <edge id=":295696846_12" function="internal">
        <lane id=":295696846_12_0" index="0" disallow="tram rail_urban rail rail_electric rail_fast ship container cable_car subway aircraft wheelchair scooter drone" speed="5.96" length="8.90" shape="927.35,624.17 929.24,622.50 929.96,620.73 929.50,618.87 927.87,616.90"/>
    </edge>
    <edge id=":295696846_13" function="internal">
        <lane id=":295696846_13_0" index="0" disallow="tram rail_urban rail rail_electric rail_fast ship container cable_car subway aircraft wheelchair scooter drone" speed="27.78" length="17.13" width="2.00" shape="927.35,624.17 930.82,622.02 934.71,619.80 938.66,617.67 942.30,615.82"/>
    </edge>
    <edge id=":295696846_14" function="internal">
        <lane id=":295696846_14_0" index="0" disallow="tram rail_urban rail rail_electric rail_fast ship container cable_car subway aircraft wheelchair scooter drone" speed="9.12" length="5.87" shape="927.35,624.17 931.85,621.98 932.71,621.89"/>
    </edge>
    <edge id=":295696846_15" function="internal">
        <lane id=":295696846_15_0" index="0" disallow="tram rail_urban rail rail_electric rail_fast ship container cable_car subway aircraft wheelchair scooter drone" speed="3.53" length="1.35" width="3.00" shape="927.35,624.17 928.70,624.18"/>
    </edge>
    <edge id=":295696846_18" function="internal">
        <lane id=":295696846_18_0" index="0" disallow="tram rail_urban rail rail_electric rail_fast ship container cable_car subway aircraft wheelchair scooter drone" speed="9.12" length="11.79" shape="932.71,621.89 935.96,621.57 939.67,622.92 943.00,626.06"/>
    </edge>
    <edge id=":295696846_19" function="internal">
        <lane id=":295696846_19_0" index="0" disallow="tram rail_urban rail rail_electric rail_fast ship container cable_car subway aircraft wheelchair scooter drone" speed="3.53" length="3.03" width="3.00" shape="928.70,624.18 929.43,624.61 929.53,625.44 929.00,626.68"/>
    </edge>
    <edge id=":320526520_0" function="internal">
        <lane id=":320526520_0_0" index="0" allow="pedestrian bicycle" speed="5.98" length="6.06" width="1.00" shape="925.68,614.91 924.33,613.96 922.95,613.55 921.56,613.68 920.14,614.35"/>
    </edge>
    <edge id=":320526520_1" function="internal">
        <lane id=":320526520_1_0" index="0" disallow="tram rail_urban rail rail_electric rail_fast ship container cable_car subway aircraft wheelchair scooter drone" speed="22.22" length="6.96" shape="925.68,614.91 920.67,610.08"/>
    </edge>
    <edge id=":320526520_2" function="internal">
        <lane id=":320526520_2_0" index="0" allow="pedestrian bicycle" speed="5.79" length="2.25" width="1.00" shape="925.68,614.91 924.50,613.27 924.51,613.04"/>
    </edge>
    <edge id=":320526520_14" function="internal">
        <lane id=":320526520_14_0" index="0" allow="pedestrian bicycle" speed="5.79" length="6.57" width="1.00" shape="924.51,613.04 924.57,611.63 925.88,609.98 928.44,608.33"/>
    </edge>
    <edge id=":320526520_3" function="internal">
        <lane id=":320526520_3_0" index="0" allow="pedestrian bicycle" speed="3.98" length="4.38" width="1.00" shape="928.90,609.21 927.71,610.01 927.13,610.83 927.17,611.67 927.83,612.54"/>
    </edge>
    <edge id=":320526520_4" function="internal">
        <lane id=":320526520_4_0" index="0" allow="pedestrian bicycle" speed="5.56" length="10.16" width="1.00" shape="928.90,609.21 926.25,610.60 924.42,611.61 922.65,612.71 920.14,614.35"/>
    </edge>
    <edge id=":320526520_5" function="internal">
        <lane id=":320526520_5_0" index="0" allow="pedestrian bicycle" speed="6.99" length="8.78" width="1.00" shape="928.90,609.21 926.12,610.44 923.83,611.00 922.01,610.88 920.67,610.08"/>
    </edge>
    <edge id=":320526520_6" function="internal">
        <lane id=":320526520_6_0" index="0" allow="pedestrian bicycle" speed="2.04" length="1.46" width="1.00" shape="928.90,609.21 928.45,609.16 928.23,609.00 928.22,608.72 928.44,608.33"/>
    </edge>
    <edge id=":320526520_7" function="internal">
        <lane id=":320526520_7_0" index="0" allow="pedestrian bicycle" speed="6.04" length="5.93" width="1.00" shape="922.97,607.86 924.11,608.71 925.40,609.08 926.85,608.95 928.44,608.33"/>
    </edge>
    <edge id=":320526520_8" function="internal">
        <lane id=":320526520_8_0" index="0" disallow="tram rail_urban rail rail_electric rail_fast ship container cable_car subway aircraft wheelchair scooter drone" speed="22.22" length="6.76" shape="922.97,607.86 927.83,612.54"/>
    </edge>
    <edge id=":320526520_9" function="internal">
        <lane id=":320526520_9_0" index="0" allow="pedestrian bicycle" speed="5.89" length="1.83" width="1.00" shape="922.97,607.86 923.81,609.32 923.80,609.45"/>
    </edge>
    <edge id=":320526520_15" function="internal">
        <lane id=":320526520_15_0" index="0" allow="pedestrian bicycle" speed="5.89" length="6.40" width="1.00" shape="923.80,609.45 923.62,610.89 922.40,612.57 920.14,614.35"/>
    </edge>
    <edge id=":320526520_10" function="internal">
        <lane id=":320526520_10_0" index="0" allow="pedestrian bicycle" speed="4.13" length="4.25" width="1.00" shape="919.59,613.52 920.66,612.64 921.20,611.77 921.20,610.92 920.67,610.08"/>
    </edge>
    <edge id=":320526520_11" function="internal">
        <lane id=":320526520_11_0" index="0" allow="pedestrian bicycle" speed="5.56" length="10.27" width="1.00" shape="919.59,613.52 922.11,611.87 923.91,610.75 925.77,609.72 928.44,608.33"/>
    </edge>
    <edge id=":320526520_12" function="internal">
        <lane id=":320526520_12_0" index="0" allow="pedestrian bicycle" speed="6.91" length="8.94" width="1.00" shape="919.59,613.52 922.13,612.12 924.34,611.49 926.25,611.63 927.83,612.54"/>
    </edge>
    <edge id=":320526520_13" function="internal">
        <lane id=":320526520_13_0" index="0" allow="pedestrian bicycle" speed="2.04" length="1.46" width="1.00" shape="919.59,613.52 920.04,613.52 920.28,613.66 920.32,613.94 920.14,614.35"/>
    </edge>
    <edge id=":320526521_0" function="internal">
        <lane id=":320526521_0_0" index="0" disallow="tram rail_urban rail rail_electric rail_fast ship container cable_car subway aircraft wheelchair scooter drone" speed="3.65" length="4.67" shape="217.34,1.27 216.88,-0.09 217.04,-0.97 217.85,-1.36 219.29,-1.27"/>
    </edge>
    <edge id=":5479541399_0" function="internal">
        <lane id=":5479541399_0_0" index="0" disallow="tram rail_urban rail rail_electric rail_fast ship container cable_car subway aircraft wheelchair scooter drone" speed="3.53" length="4.38" width="3.00" shape="710.92,777.17 709.57,777.20 708.84,776.79 708.71,775.96 709.21,774.71"/>
    </edge>
    <edge id=":8251730177_0" function="internal">
        <lane id=":8251730177_0_0" index="0" disallow="tram rail_urban rail rail_electric rail_fast ship container cable_car subway aircraft wheelchair scooter drone" speed="2.89" length="2.92" width="2.00" shape="1003.90,588.84 1004.78,589.05 1005.19,589.44 1005.12,589.99 1004.59,590.72"/>
    </edge>
    <edge id=":8251730178_0" function="internal">
        <lane id=":8251730178_0_0" index="0" disallow="tram rail_urban rail rail_electric rail_fast ship container cable_car subway aircraft wheelchair scooter drone" speed="27.78" length="22.96" width="3.00" shape="908.61,640.14 889.52,652.89"/>
    </edge>
    <edge id=":8251730178_1" function="internal">
        <lane id=":8251730178_1_0" index="0" disallow="tram rail_urban rail rail_electric rail_fast ship container cable_car subway aircraft wheelchair scooter drone" speed="6.01" length="1.91" width="3.00" shape="908.61,640.14 906.76,640.59"/>
    </edge>
    <edge id=":8251730178_2" function="internal">
        <lane id=":8251730178_2_0" index="0" disallow="tram rail_urban rail rail_electric rail_fast ship container cable_car subway aircraft wheelchair scooter drone" speed="3.53" length="1.35" width="3.00" shape="908.61,640.14 907.26,640.13"/>
    </edge>
    <edge id=":8251730178_9" function="internal">
        <lane id=":8251730178_9_0" index="0" disallow="tram rail_urban rail rail_electric rail_fast ship container cable_car subway aircraft wheelchair scooter drone" speed="6.01" length="12.45" width="3.00" shape="906.76,640.59 904.96,641.02 901.90,639.48 900.34,636.44 901.19,632.78"/>
    </edge>
    <edge id=":8251730178_10" function="internal">
        <lane id=":8251730178_10_0" index="0" disallow="tram rail_urban rail rail_electric rail_fast ship container cable_car subway aircraft wheelchair scooter drone" speed="3.53" length="3.03" width="3.00" shape="907.26,640.13 906.53,639.71 906.43,638.88 906.95,637.63"/>
    </edge>
    <edge id=":8251730178_3" function="internal">
        <lane id=":8251730178_3_0" index="0" disallow="tram rail_urban rail rail_electric rail_fast ship container cable_car subway aircraft wheelchair scooter drone" speed="5.58" length="12.11" width="3.00" shape="903.71,634.42 901.62,638.14 901.47,639.92 903.25,639.75 906.95,637.63"/>
    </edge>
    <edge id=":8251730178_4" function="internal">
        <lane id=":8251730178_4_0" index="0" disallow="tram rail_urban rail rail_electric rail_fast ship container cable_car subway aircraft wheelchair scooter drone" speed="27.78" length="23.37" width="3.00" shape="903.71,634.42 900.92,638.67 897.13,644.16 893.08,649.39 889.52,652.89"/>
    </edge>
    <edge id=":8251730178_5" function="internal">
        <lane id=":8251730178_5_0" index="0" disallow="tram rail_urban rail rail_electric rail_fast ship container cable_car subway aircraft wheelchair scooter drone" speed="3.53" length="4.38" width="3.00" shape="903.71,634.42 902.47,634.95 901.63,634.86 901.21,634.14 901.19,632.78"/>
    </edge>
    <edge id=":8251730178_6" function="internal">
        <lane id=":8251730178_6_0" index="0" disallow="tram rail_urban rail rail_electric rail_fast ship container cable_car subway aircraft wheelchair scooter drone" speed="27.78" length="22.23" width="3.00" shape="887.80,650.43 891.24,647.06 895.02,642.11 898.53,636.91 901.19,632.78"/>
    </edge>
    <edge id=":8251730178_7" function="internal">
        <lane id=":8251730178_7_0" index="0" disallow="tram rail_urban rail rail_electric rail_fast ship container cable_car subway aircraft wheelchair scooter drone" speed="27.78" length="23.03" width="3.00" shape="887.80,650.43 906.95,637.63"/>
    </edge>
    <edge id=":8251730178_8" function="internal">
        <lane id=":8251730178_8_0" index="0" disallow="tram rail_urban rail rail_electric rail_fast ship container cable_car subway aircraft wheelchair scooter drone" speed="3.53" length="1.35" width="3.00" shape="887.80,650.43 889.15,650.41"/>
    </edge>
    <edge id=":8251730178_11" function="internal">
        <lane id=":8251730178_11_0" index="0" disallow="tram rail_urban rail rail_electric rail_fast ship container cable_car subway aircraft wheelchair scooter drone" speed="3.53" length="3.03" width="3.00" shape="889.15,650.41 889.89,650.81 890.01,651.64 889.52,652.89"/>
    </edge>
    <edge id=":8251730197_0" function="internal">
        <lane id=":8251730197_0_0" index="0" disallow="tram rail_urban rail rail_electric rail_fast ship container cable_car subway aircraft wheelchair scooter drone" speed="16.26" length="21.96" shape="907.39,608.27 905.98,603.64 903.40,598.03 900.25,592.74 897.12,589.12"/>
    </edge>
    <edge id=":8251730197_1" function="internal">
        <lane id=":8251730197_1_0" index="0" disallow="tram rail_urban rail rail_electric rail_fast ship container cable_car subway aircraft wheelchair scooter drone" speed="6.45" length="2.17" shape="907.39,608.27 907.54,606.11"/>
    </edge>
    <edge id=":8251730197_2" function="internal">
        <lane id=":8251730197_2_0" index="0" disallow="tram rail_urban rail rail_electric rail_fast ship container cable_car subway aircraft wheelchair scooter drone" speed="3.63" length="1.65" width="3.00" shape="907.39,608.27 907.44,606.82 907.55,606.65"/>
    </edge>
    <edge id=":8251730197_9" function="internal">
        <lane id=":8251730197_9_0" index="0" disallow="tram rail_urban rail rail_electric rail_fast ship container cable_car subway aircraft wheelchair scooter drone" speed="6.45" length="13.32" shape="907.54,606.11 907.70,603.82 909.75,600.51 912.83,599.24 916.24,600.91"/>
    </edge>
    <edge id=":8251730197_10" function="internal">
        <lane id=":8251730197_10_0" index="0" disallow="tram rail_urban rail rail_electric rail_fast ship container cable_car subway aircraft wheelchair scooter drone" speed="3.63" length="3.07" width="3.00" shape="907.55,606.65 907.92,606.05 908.82,605.98 910.15,606.59"/>
    </edge>
    <edge id=":8251730197_3" function="internal">
        <lane id=":8251730197_3_0" index="0" disallow="tram rail_urban rail rail_electric rail_fast ship container cable_car subway aircraft wheelchair scooter drone" speed="5.31" length="9.87" width="3.00" shape="914.22,603.43 911.88,601.47 910.42,601.35 909.84,603.05 910.15,606.59"/>
    </edge>
    <edge id=":8251730197_4" function="internal">
        <lane id=":8251730197_4_0" index="0" disallow="tram rail_urban rail rail_electric rail_fast ship container cable_car subway aircraft wheelchair scooter drone" speed="22.22" length="22.30" shape="914.22,603.43 910.63,600.12 905.83,596.10 900.95,592.18 897.12,589.12"/>
    </edge>
    <edge id=":8251730197_5" function="internal">
        <lane id=":8251730197_5_0" index="0" disallow="tram rail_urban rail rail_electric rail_fast ship container cable_car subway aircraft wheelchair scooter drone" speed="3.66" length="4.71" shape="914.22,603.43 913.78,602.04 913.97,601.16 914.79,600.79 916.24,600.91"/>
    </edge>
    <edge id=":8251730197_6" function="internal">
        <lane id=":8251730197_6_0" index="0" disallow="tram rail_urban rail rail_electric rail_fast ship container cable_car subway aircraft wheelchair scooter drone" speed="22.22" length="22.29" shape="899.13,586.63 902.96,589.68 907.84,593.60 912.65,597.61 916.24,600.91"/>
    </edge>
    <edge id=":8251730197_7" function="internal">
        <lane id=":8251730197_7_0" index="0" disallow="tram rail_urban rail rail_electric rail_fast ship container cable_car subway aircraft wheelchair scooter drone" speed="16.65" length="23.02" width="3.00" shape="899.13,586.63 902.38,590.38 905.79,595.94 908.62,601.83 910.15,606.59"/>
    </edge>
    <edge id=":8251730197_8" function="internal">
        <lane id=":8251730197_8_0" index="0" disallow="tram rail_urban rail rail_electric rail_fast ship container cable_car subway aircraft wheelchair scooter drone" speed="3.65" length="1.44" shape="899.13,586.63 899.56,588.01"/>
    </edge>
    <edge id=":8251730197_11" function="internal">
        <lane id=":8251730197_11_0" index="0" disallow="tram rail_urban rail rail_electric rail_fast ship container cable_car subway aircraft wheelchair scooter drone" speed="3.65" length="3.23" shape="899.56,588.01 899.37,588.88 898.56,589.25 897.12,589.12"/>
    </edge>
    <edge id=":8251730198_0" function="internal">
        <lane id=":8251730198_0_0" index="0" allow="pedestrian bicycle" speed="8.87" length="5.88" width="1.00" shape="914.27,618.25 912.75,619.13 911.63,619.75 910.79,620.58 910.12,622.10"/>
    </edge>
    <edge id=":8251730198_1" function="internal">
        <lane id=":8251730198_1_0" index="0" allow="pedestrian bicycle" speed="5.56" length="7.34" width="1.00" shape="914.27,618.25 912.43,619.22 910.97,619.43 909.40,619.21 907.23,618.90"/>
    </edge>
    <edge id=":8251730198_2" function="internal">
        <lane id=":8251730198_2_0" index="0" allow="pedestrian bicycle" speed="5.32" length="9.57" width="1.00" shape="914.27,618.25 911.51,619.66 909.60,619.67 908.53,618.28 908.32,615.48"/>
    </edge>
    <edge id=":8251730198_3" function="internal">
        <lane id=":8251730198_3_0" index="0" allow="pedestrian bicycle" speed="2.11" length="1.62" width="1.00" shape="914.27,618.25 913.82,618.03 913.65,617.78 913.74,617.48 914.12,617.15"/>
    </edge>
    <edge id=":8251730198_4" function="internal">