<?xml version="1.0" encoding="UTF-8"?>

<!-- generated on 2024-09-03 01:38:49 by Eclipse SUMO duarouter Version 1.20.0
<configuration xmlns:xsi="http://www.w3.org/2001/XMLSchema-instance" xsi:noNamespaceSchemaLocation="http://sumo.dlr.de/xsd/duarouterConfiguration.xsd">

    <input>
        <net-file value="train_files/intersection/hard/outputs/map(86)_dict/map(86)/map(86).net.xml"/>
        <route-files value="train_files/intersection/hard/outputs/map(86)_dict/map(86)/map(86).trips.xml"/>
    </input>

    <output>
        <output-file value="train_files/intersection/hard/outputs/map(86)_dict/map(86)/map(86).rou.xml"/>
    </output>

    <report>
        <ignore-errors value="true"/>
    </report>

</configuration>
-->

<routes xmlns:xsi="http://www.w3.org/2001/XMLSchema-instance" xsi:noNamespaceSchemaLocation="http://sumo.dlr.de/xsd/routes_file.xsd">
    <vehicle id="0" depart="0.00">
        <route edges="1023038855 -1023038855"/>
    </vehicle>
    <vehicle id="1" depart="0.72">
        <route edges="-749886180#2 -749886180#1 -749886180#0 -750606424 -26612450 -750606427 -46830027"/>
    </vehicle>
    <vehicle id="2" depart="1.44">
        <route edges="46830027 750606427 26612450 750606424 749886180#0 749886180#1 749886180#2"/>
    </vehicle>
    <vehicle id="7" depart="5.04">
        <route edges="1023038855 34958205#1 34958205#2"/>
    </vehicle>
    <vehicle id="10" depart="7.20">
        <route edges="46830027 750606427 26612450 750606424 749886180#0 749886180#1 749886180#2"/>
    </vehicle>
    <vehicle id="12" depart="8.64">
        <route edges="750603169 749886181 -749886181 -750603169"/>
    </vehicle>
    <vehicle id="13" depart="9.36">
        <route edges="-34958205#2 -34958205#1 -1023038855"/>
    </vehicle>
    <vehicle id="15" depart="10.80">
        <route edges="46830027 750606427 26612450 750606424 749886180#0 749886180#1 749886180#2"/>
    </vehicle>
    <vehicle id="21" depart="15.12">
        <route edges="-749886180#2 -749886180#1 -749886180#0 -750606424 -26612450 -750606427 -46830027"/>
    </vehicle>
    <vehicle id="25" depart="18.00">
        <route edges="-750603168 -1153822133 750606423#0 750606423#1 -46830027"/>
    </vehicle>
    <vehicle id="26" depart="18.72">
        <route edges="-749886180#2 -749886180#1 -749886180#0 758523518 1153822133 750603168"/>
    </vehicle>
    <vehicle id="27" depart="19.44">
        <route edges="1023038855 34958205#1 34958205#2"/>
    </vehicle>
    <vehicle id="28" depart="20.16">
        <route edges="-749886180#2 -749886180#1 -749886180#0 749886180#0 749886180#1 749886180#2"/>
    </vehicle>
    <vehicle id="32" depart="23.04">
        <route edges="750603169 749886181 750606425 750606424 749886180#0 749886180#1 749886180#2"/>
    </vehicle>
    <vehicle id="34" depart="24.48">
        <route edges="-749886180#2 -749886180#1 -749886180#0 -750606424 -26612450 -750606427 -46830027"/>
    </vehicle>
    <vehicle id="35" depart="25.20">
        <route edges="-749886180#2 -749886180#1 -749886180#0 758523518 1153822133 750603168"/>
    </vehicle>
    <vehicle id="36" depart="25.92">
        <route edges="750603169 749886181 750606426#0 750606426#1 -750606427 -46830027"/>
    </vehicle>
    <vehicle id="38" depart="27.36">
        <route edges="750603169 749886181 -749886181 -750603169"/>
    </vehicle>
    <vehicle id="39" depart="28.08">
        <route edges="-749886180#2 -749886180#1 -749886180#0 -750606424 -26612450 -750606427 -46830027"/>
    </vehicle>
    <vehicle id="42" depart="30.24">
        <route edges="-750603168 -1153822133 750606423#0 750606423#1 -46830027"/>
    </vehicle>
    <vehicle id="44" depart="31.68">
        <route edges="-34958205#2 -34958205#1 -1023038855"/>
    </vehicle>
    <vehicle id="45" depart="32.40">
        <route edges="-34958205#2 -34958205#1 34958205#1 34958205#2"/>
    </vehicle>
    <vehicle id="46" depart="33.12">
        <route edges="46830027 750606428#0 750606428#1 -749886181 -750603169"/>
    </vehicle>
    <vehicle id="49" depart="35.28">
        <route edges="750603169 749886181 750606426#0 750606426#1 750606422 1153822133 750603168"/>
    </vehicle>
    <vehicle id="54" depart="38.88">
        <route edges="-750603168 -1153822133 1153822133 750603168"/>
    </vehicle>
    <vehicle id="55" depart="39.60">
        <route edges="750603169 749886181 750606426#0 750606426#1 -750606427 -46830027"/>
    </vehicle>
    <vehicle id="57" depart="41.04">
        <route edges="750603169 749886181 750606426#0 750606426#1 750606422 1153822133 750603168"/>
    </vehicle>
    <vehicle id="59" depart="42.48">
        <route edges="1023038855 -1023038855"/>
    </vehicle>
    <vehicle id="64" depart="46.08">
        <route edges="750603169 749886181 750606425 750606424 749886180#0 749886180#1 749886180#2"/>
    </vehicle>
    <vehicle id="66" depart="47.52">
        <route edges="750603169 749886181 750606426#0 750606426#1 750606422 1153822133 750603168"/>
    </vehicle>
    <vehicle id="71" depart="51.12">
        <route edges="-749886180#2 -749886180#1 -749886180#0 758523518 1153822133 750603168"/>
    </vehicle>
    <vehicle id="72" depart="51.84">
        <route edges="-750603168 -1153822133 750606423#0 750606423#1 -46830027"/>
    </vehicle>
    <vehicle id="74" depart="53.28">
        <route edges="-749886180#2 -749886180#1 -749886180#0 -750606424 -26612450 -750606427 -46830027"/>
    </vehicle>
    <vehicle id="79" depart="56.88">
        <route edges="-749886180#2 -749886180#1 -749886180#0 -750606424 -26612450 -750606427 -46830027"/>
    </vehicle>
    <vehicle id="80" depart="57.60">
        <route edges="-34958205#2 -34958205#1 34958205#1 34958205#2"/>
    </vehicle>
    <vehicle id="81" depart="58.32">
        <route edges="-749886180#2 -749886180#1 -749886180#0 758523518 1153822133 750603168"/>
    </vehicle>
    <vehicle id="83" depart="59.76">
        <route edges="-749886180#2 -749886180#1 -749886180#0 749886180#0 749886180#1 749886180#2"/>
    </vehicle>
    <vehicle id="86" depart="61.92">
        <route edges="-750603168 -1153822133 -750606422 26612450 750606424 749886180#0 749886180#1 749886180#2"/>
    </vehicle>
    <vehicle id="87" depart="62.64">
        <route edges="46830027 -46830027"/>
    </vehicle>
    <vehicle id="89" depart="64.08">
        <route edges="-750603168 -1153822133 -750606422 -750606426#1 -750606426#0 -749886181 -750603169"/>
    </vehicle>
    <vehicle id="90" depart="64.80">
        <route edges="46830027 750606427 26612450 750606424 749886180#0 749886180#1 749886180#2"/>
    </vehicle>
    <vehicle id="92" depart="66.24">
        <route edges="-750603168 -1153822133 -750606422 -750606426#1 -750606426#0 -749886181 -750603169"/>
    </vehicle>
    <vehicle id="93" depart="66.96">
        <route edges="750603169 749886181 750606426#0 750606426#1 -750606427 -46830027"/>
    </vehicle>
    <vehicle id="94" depart="67.68">
        <route edges="-749886180#2 -749886180#1 -749886180#0 -750606424 -26612450 -750606426#1 -750606426#0 -749886181 -750603169"/>
    </vehicle>
    <vehicle id="95" depart="68.40">
        <route edges="-750603168 -1153822133 750606423#0 750606423#1 -46830027"/>
    </vehicle>
    <vehicle id="96" depart="69.12">
        <route edges="-749886180#2 -749886180#1 -749886180#0 758523518 1153822133 750603168"/>
    </vehicle>
    <vehicle id="97" depart="69.84">
        <route edges="-750603168 -1153822133 1153822133 750603168"/>
    </vehicle>
    <vehicle id="98" depart="70.56">
        <route edges="1023038855 -1023038855"/>
    </vehicle>
    <vehicle id="99" depart="71.28">
        <route edges="750603169 749886181 750606426#0 750606426#1 750606422 1153822133 750603168"/>
    </vehicle>
    <vehicle id="100" depart="72.00">
        <route edges="750603169 749886181 750606426#0 750606426#1 750606422 1153822133 750603168"/>
    </vehicle>
    <vehicle id="102" depart="73.44">
        <route edges="-750603168 -1153822133 750606423#0 750606423#1 -46830027"/>
    </vehicle>
    <vehicle id="104" depart="74.88">
        <route edges="-750603168 -1153822133 1153822133 750603168"/>
    </vehicle>
    <vehicle id="105" depart="75.60">
        <route edges="-749886180#2 -749886180#1 -749886180#0 749886180#0 749886180#1 749886180#2"/>
    </vehicle>
    <vehicle id="106" depart="76.32">
        <route edges="-750603168 -1153822133 -750606422 -750606426#1 -750606426#0 -749886181 -750603169"/>
    </vehicle>
    <vehicle id="107" depart="77.04">
        <route edges="750603169 749886181 750606426#0 750606426#1 750606422 1153822133 750603168"/>
    </vehicle>
    <vehicle id="112" depart="80.64">
        <route edges="-34958205#2 -34958205#1 34958205#1 34958205#2"/>
    </vehicle>
    <vehicle id="118" depart="84.96">
        <route edges="750603169 749886181 750606426#0 750606426#1 -750606427 -46830027"/>
    </vehicle>
    <vehicle id="119" depart="85.68">
        <route edges="1023038855 34958205#1 34958205#2"/>
    </vehicle>
    <vehicle id="122" depart="87.84">
        <route edges="-749886180#2 -749886180#1 -749886180#0 749886180#0 749886180#1 749886180#2"/>
    </vehicle>
    <vehicle id="123" depart="88.56">
        <route edges="-749886180#2 -749886180#1 -749886180#0 -750606424 -26612450 -750606426#1 -750606426#0 -749886181 -750603169"/>
    </vehicle>
    <vehicle id="124" depart="89.28">
        <route edges="46830027 -46830027"/>
    </vehicle>
    <vehicle id="125" depart="90.00">
        <route edges="-749886180#2 -749886180#1 -749886180#0 749886180#0 749886180#1 749886180#2"/>
    </vehicle>
    <vehicle id="127" depart="91.44">
        <route edges="750603169 749886181 750606426#0 750606426#1 750606422 1153822133 750603168"/>
    </vehicle>
    <vehicle id="129" depart="92.88">
        <route edges="-749886180#2 -749886180#1 -749886180#0 758523518 1153822133 750603168"/>
    </vehicle>
    <vehicle id="130" depart="93.60">
        <route edges="750603169 749886181 750606426#0 750606426#1 750606422 1153822133 750603168"/>
    </vehicle>
    <vehicle id="132" depart="95.04">
        <route edges="750603169 749886181 750606425 750606424 749886180#0 749886180#1 749886180#2"/>
    </vehicle>
    <vehicle id="134" depart="96.48">
        <route edges="1023038855 -1023038855"/>
    </vehicle>
    <vehicle id="135" depart="97.20">
        <route edges="46830027 -46830027"/>
    </vehicle>
    <vehicle id="137" depart="98.64">
        <route edges="-34958205#2 -34958205#1 -1023038855"/>
    </vehicle>
    <vehicle id="138" depart="99.36">
        <route edges="-34958205#2 -34958205#1 34958205#1 34958205#2"/>
    </vehicle>
    <vehicle id="140" depart="100.80">
        <route edges="46830027 -46830027"/>
    </vehicle>
    <vehicle id="142" depart="102.24">
        <route edges="-750603168 -1153822133 1153822133 750603168"/>
    </vehicle>
    <vehicle id="144" depart="103.68">
        <route edges="-750603168 -1153822133 750606423#0 750606423#1 -46830027"/>
    </vehicle>
    <vehicle id="152" depart="109.44">
        <route edges="-34958205#2 -34958205#1 -1023038855"/>
    </vehicle>
    <vehicle id="153" depart="110.16">
        <route edges="-749886180#2 -749886180#1 -749886180#0 758523518 1153822133 750603168"/>
    </vehicle>
    <vehicle id="154" depart="110.88">
        <route edges="46830027 750606427 750606422 1153822133 750603168"/>
    </vehicle>
    <vehicle id="155" depart="111.60">
        <route edges="750603169 749886181 750606426#0 750606426#1 -750606427 -46830027"/>
    </vehicle>
    <vehicle id="157" depart="113.04">
        <route edges="46830027 750606427 750606422 1153822133 750603168"/>
    </vehicle>
    <vehicle id="160" depart="115.20">
        <route edges="750603169 749886181 750606426#0 750606426#1 750606422 1153822133 750603168"/>
    </vehicle>
    <vehicle id="161" depart="115.92">
        <route edges="46830027 750606427 750606422 1153822133 750603168"/>
    </vehicle>
    <vehicle id="163" depart="117.36">
        <route edges="-749886180#2 -749886180#1 -749886180#0 758523518 1153822133 750603168"/>
    </vehicle>
    <vehicle id="164" depart="118.08">
        <route edges="46830027 750606427 750606422 1153822133 750603168"/>
    </vehicle>
    <vehicle id="165" depart="118.80">
        <route edges="46830027 -46830027"/>
    </vehicle>
    <vehicle id="167" depart="120.24">
        <route edges="750603169 749886181 750606426#0 750606426#1 750606422 1153822133 750603168"/>
    </vehicle>
    <vehicle id="168" depart="120.96">
        <route edges="-749886180#2 -749886180#1 -749886180#0 749886180#0 749886180#1 749886180#2"/>
    </vehicle>
    <vehicle id="169" depart="121.68">
        <route edges="-750603168 -1153822133 750606423#0 750606423#1 -46830027"/>
    </vehicle>
    <vehicle id="170" depart="122.40">
        <route edges="46830027 -46830027"/>
    </vehicle>
    <vehicle id="172" depart="123.84">
        <route edges="-749886180#2 -749886180#1 -749886180#0 758523518 1153822133 750603168"/>
    </vehicle>
    <vehicle id="173" depart="124.56">
        <route edges="750603169 749886181 750606426#0 750606426#1 -750606427 -46830027"/>
    </vehicle>
    <vehicle id="177" depart="127.44">
        <route edges="750603169 749886181 750606426#0 750606426#1 -750606427 -46830027"/>
    </vehicle>
    <vehicle id="178" depart="128.16">
        <route edges="750603169 749886181 750606426#0 750606426#1 -750606427 -46830027"/>
    </vehicle>
    <vehicle id="180" depart="129.60">
        <route edges="46830027 -46830027"/>
    </vehicle>
    <vehicle id="181" depart="130.32">
        <route edges="1023038855 34958205#1 34958205#2"/>
    </vehicle>
    <vehicle id="183" depart="131.76">
        <route edges="-749886180#2 -749886180#1 -749886180#0 749886180#0 749886180#1 749886180#2"/>
    </vehicle>
    <vehicle id="186" depart="133.92">
        <route edges="46830027 750606427 26612450 750606424 749886180#0 749886180#1 749886180#2"/>
    </vehicle>
    <vehicle id="189" depart="136.08">
        <route edges="-749886180#2 -749886180#1 -749886180#0 758523518 1153822133 750603168"/>
    </vehicle>
    <vehicle id="190" depart="136.80">
        <route edges="46830027 -46830027"/>
    </vehicle>
    <vehicle id="191" depart="137.52">
        <route edges="-749886180#2 -749886180#1 -749886180#0 -750606424 -26612450 -750606426#1 -750606426#0 -749886181 -750603169"/>
    </vehicle>
    <vehicle id="192" depart="138.24">
        <route edges="-750603168 -1153822133 750606423#0 750606423#1 -46830027"/>
    </vehicle>
    <vehicle id="194" depart="139.68">
        <route edges="750603169 749886181 750606425 750606424 749886180#0 749886180#1 749886180#2"/>
    </vehicle>
    <vehicle id="200" depart="144.00">
        <route edges="-750603168 -1153822133 750606423#0 750606423#1 -46830027"/>
    </vehicle>
    <vehicle id="201" depart="144.72">
        <route edges="-750603168 -1153822133 1153822133 750603168"/>
    </vehicle>
    <vehicle id="202" depart="145.44">
        <route edges="46830027 -46830027"/>
    </vehicle>
    <vehicle id="203" depart="146.16">
        <route edges="-34958205#2 -34958205#1 34958205#1 34958205#2"/>
    </vehicle>
    <vehicle id="205" depart="147.60">
        <route edges="46830027 750606427 26612450 750606424 749886180#0 749886180#1 749886180#2"/>
    </vehicle>
    <vehicle id="206" depart="148.32">
        <route edges="46830027 -46830027"/>
    </vehicle>
    <vehicle id="208" depart="149.76">
        <route edges="-749886180#2 -749886180#1 -749886180#0 -750606424 -26612450 -750606426#1 -750606426#0 -749886181 -750603169"/>
    </vehicle>
    <vehicle id="211" depart="151.92">
        <route edges="-749886180#2 -749886180#1 -749886180#0 749886180#0 749886180#1 749886180#2"/>
    </vehicle>
    <vehicle id="212" depart="152.64">
        <route edges="-750603168 -1153822133 750606423#0 750606423#1 -46830027"/>
    </vehicle>
    <vehicle id="213" depart="153.36">
        <route edges="1023038855 -1023038855"/>
    </vehicle>
    <vehicle id="214" depart="154.08">
        <route edges="46830027 750606427 26612450 750606424 749886180#0 749886180#1 749886180#2"/>
    </vehicle>
    <vehicle id="216" depart="155.52">
        <route edges="-749886180#2 -749886180#1 -749886180#0 758523518 1153822133 750603168"/>
    </vehicle>
    <vehicle id="217" depart="156.24">
        <route edges="1023038855 -1023038855"/>
    </vehicle>
    <vehicle id="218" depart="156.96">
        <route edges="-749886180#2 -749886180#1 -749886180#0 758523518 1153822133 750603168"/>
    </vehicle>
    <vehicle id="219" depart="157.68">
        <route edges="-750603168 -1153822133 -750606422 26612450 750606424 749886180#0 749886180#1 749886180#2"/>
    </vehicle>
    <vehicle id="220" depart="158.40">
        <route edges="46830027 750606427 750606422 1153822133 750603168"/>
    </vehicle>
    <vehicle id="225" depart="162.00">
        <route edges="750603169 749886181 750606425 750606424 749886180#0 749886180#1 749886180#2"/>
    </vehicle>
    <vehicle id="226" depart="162.72">
        <route edges="-750603168 -1153822133 750606423#0 750606423#1 -46830027"/>
    </vehicle>
    <vehicle id="231" depart="166.32">
        <route edges="-749886180#2 -749886180#1 -749886180#0 -750606424 -26612450 -750606427 -46830027"/>
    </vehicle>
    <vehicle id="232" depart="167.04">
        <route edges="1023038855 -1023038855"/>
    </vehicle>
    <vehicle id="233" depart="167.76">
        <route edges="-749886180#2 -749886180#1 -749886180#0 749886180#0 749886180#1 749886180#2"/>
    </vehicle>
    <vehicle id="236" depart="169.92">
        <route edges="-750603168 -1153822133 750606423#0 750606423#1 -46830027"/>
    </vehicle>
    <vehicle id="237" depart="170.64">
        <route edges="-750603168 -1153822133 1153822133 750603168"/>
    </vehicle>
    <vehicle id="239" depart="172.08">
        <route edges="750603169 749886181 750606425 750606424 749886180#0 749886180#1 749886180#2"/>
    </vehicle>
    <vehicle id="241" depart="173.52">
        <route edges="-750603168 -1153822133 -750606422 26612450 750606424 749886180#0 749886180#1 749886180#2"/>
    </vehicle>
    <vehicle id="242" depart="174.24">
        <route edges="750603169 749886181 750606426#0 750606426#1 750606422 1153822133 750603168"/>
    </vehicle>
    <vehicle id="243" depart="174.96">
        <route edges="-750603168 -1153822133 -750606422 26612450 750606424 749886180#0 749886180#1 749886180#2"/>
    </vehicle>
    <vehicle id="244" depart="175.68">
        <route edges="1023038855 34958205#1 34958205#2"/>
    </vehicle>
    <vehicle id="245" depart="176.40">
        <route edges="-749886180#2 -749886180#1 -749886180#0 -750606424 -26612450 -750606427 -46830027"/>
    </vehicle>
    <vehicle id="247" depart="177.84">
        <route edges="-750603168 -1153822133 -750606422 26612450 750606424 749886180#0 749886180#1 749886180#2"/>
    </vehicle>
    <vehicle id="250" depart="180.00">
        <route edges="1023038855 -1023038855"/>
    </vehicle>
    <vehicle id="252" depart="181.44">
        <route edges="-34958205#2 -34958205#1 34958205#1 34958205#2"/>
    </vehicle>
    <vehicle id="255" depart="183.60">
        <route edges="-749886180#2 -749886180#1 -749886180#0 -750606424 -26612450 -750606427 -46830027"/>
    </vehicle>
    <vehicle id="256" depart="184.32">
        <route edges="46830027 750606428#0 750606428#1 -749886181 -750603169"/>
    </vehicle>
    <vehicle id="257" depart="185.04">
        <route edges="46830027 750606427 26612450 750606424 749886180#0 749886180#1 749886180#2"/>
    </vehicle>
    <vehicle id="259" depart="186.48">
        <route edges="-34958205#2 -34958205#1 34958205#1 34958205#2"/>
    </vehicle>
    <vehicle id="260" depart="187.20">
        <route edges="750603169 749886181 -749886181 -750603169"/>
    </vehicle>
    <vehicle id="263" depart="189.36">
        <route edges="750603169 749886181 750606426#0 750606426#1 -750606427 -46830027"/>
    </vehicle>
    <vehicle id="264" depart="190.08">
        <route edges="-34958205#2 -34958205#1 -1023038855"/>
    </vehicle>
    <vehicle id="267" depart="192.24">
        <route edges="46830027 750606427 26612450 750606424 749886180#0 749886180#1 749886180#2"/>
    </vehicle>
    <vehicle id="270" depart="194.40">
        <route edges="46830027 750606427 750606422 1153822133 750603168"/>
    </vehicle>
    <vehicle id="271" depart="195.12">
        <route edges="-34958205#2 -34958205#1 -1023038855"/>
    </vehicle>
    <vehicle id="272" depart="195.84">
        <route edges="-749886180#2 -749886180#1 -749886180#0 749886180#0 749886180#1 749886180#2"/>
    </vehicle>
    <vehicle id="273" depart="196.56">
        <route edges="750603169 749886181 -749886181 -750603169"/>
    </vehicle>
    <vehicle id="279" depart="200.88">
        <route edges="46830027 750606428#0 750606428#1 -749886181 -750603169"/>
    </vehicle>
    <vehicle id="280" depart="201.60">
        <route edges="-750603168 -1153822133 -750606422 -750606426#1 -750606426#0 -749886181 -750603169"/>
    </vehicle>
    <vehicle id="282" depart="203.04">
        <route edges="750603169 749886181 750606425 750606424 749886180#0 749886180#1 749886180#2"/>
    </vehicle>
    <vehicle id="285" depart="205.20">
        <route edges="46830027 750606428#0 750606428#1 -749886181 -750603169"/>
    </vehicle>
    <vehicle id="286" depart="205.92">
        <route edges="46830027 750606427 750606422 1153822133 750603168"/>
    </vehicle>
    <vehicle id="287" depart="206.64">
        <route edges="-749886180#2 -749886180#1 -749886180#0 749886180#0 749886180#1 749886180#2"/>
    </vehicle>
    <vehicle id="289" depart="208.08">
        <route edges="-750603168 -1153822133 -750606422 26612450 750606424 749886180#0 749886180#1 749886180#2"/>
    </vehicle>
    <vehicle id="290" depart="208.80">
        <route edges="-749886180#2 -749886180#1 -749886180#0 758523518 1153822133 750603168"/>
    </vehicle>
    <vehicle id="292" depart="210.24">
        <route edges="750603169 749886181 750606426#0 750606426#1 -750606427 -46830027"/>
    </vehicle>
    <vehicle id="295" depart="212.40">
        <route edges="750603169 749886181 750606426#0 750606426#1 -750606427 -46830027"/>
    </vehicle>
    <vehicle id="296" depart="213.12">
        <route edges="-749886180#2 -749886180#1 -749886180#0 749886180#0 749886180#1 749886180#2"/>
    </vehicle>
    <vehicle id="297" depart="213.84">
        <route edges="-750603168 -1153822133 1153822133 750603168"/>
    </vehicle>
    <vehicle id="298" depart="214.56">
        <route edges="46830027 -46830027"/>
    </vehicle>
    <vehicle id="301" depart="216.72">
        <route edges="-750603168 -1153822133 -750606422 26612450 750606424 749886180#0 749886180#1 749886180#2"/>
    </vehicle>
    <vehicle id="303" depart="218.16">
        <route edges="-750603168 -1153822133 -750606422 26612450 750606424 749886180#0 749886180#1 749886180#2"/>
    </vehicle>
    <vehicle id="305" depart="219.60">
        <route edges="46830027 -46830027"/>
    </vehicle>
    <vehicle id="308" depart="221.76">
        <route edges="46830027 -46830027"/>
    </vehicle>
    <vehicle id="309" depart="222.48">
        <route edges="46830027 -46830027"/>
    </vehicle>
    <vehicle id="313" depart="225.36">
        <route edges="-749886180#2 -749886180#1 -749886180#0 -750606424 -26612450 -750606427 -46830027"/>
    </vehicle>
    <vehicle id="314" depart="226.08">
        <route edges="-750603168 -1153822133 -750606422 26612450 750606424 749886180#0 749886180#1 749886180#2"/>
    </vehicle>
    <vehicle id="317" depart="228.24">
        <route edges="-749886180#2 -749886180#1 -749886180#0 -750606424 -26612450 -750606427 -46830027"/>
    </vehicle>
    <vehicle id="322" depart="231.84">
        <route edges="750603169 749886181 -749886181 -750603169"/>
    </vehicle>
    <vehicle id="324" depart="233.28">
        <route edges="-750603168 -1153822133 -750606422 -750606426#1 -750606426#0 -749886181 -750603169"/>
    </vehicle>
    <vehicle id="326" depart="234.72">
        <route edges="750603169 749886181 -749886181 -750603169"/>
    </vehicle>
    <vehicle id="327" depart="235.44">
        <route edges="46830027 750606428#0 750606428#1 -749886181 -750603169"/>
    </vehicle>
    <vehicle id="328" depart="236.16">
        <route edges="-34958205#2 -34958205#1 34958205#1 34958205#2"/>
    </vehicle>
    <vehicle id="329" depart="236.88">
        <route edges="-34958205#2 -34958205#1 -1023038855"/>
    </vehicle>
    <vehicle id="333" depart="239.76">
        <route edges="46830027 -46830027"/>
    </vehicle>
    <vehicle id="335" depart="241.20">
        <route edges="-750603168 -1153822133 1153822133 750603168"/>
    </vehicle>
    <vehicle id="336" depart="241.92">
        <route edges="750603169 749886181 750606426#0 750606426#1 -750606427 -46830027"/>
    </vehicle>
    <vehicle id="337" depart="242.64">
        <route edges="1023038855 34958205#1 34958205#2"/>
    </vehicle>
    <vehicle id="338" depart="243.36">
        <route edges="46830027 750606427 750606422 1153822133 750603168"/>
    </vehicle>
    <vehicle id="339" depart="244.08">
        <route edges="-749886180#2 -749886180#1 -749886180#0 -750606424 -26612450 -750606427 -46830027"/>
    </vehicle>
    <vehicle id="340" depart="244.80">
        <route edges="1023038855 -1023038855"/>
    </vehicle>
    <vehicle id="344" depart="247.68">
        <route edges="-749886180#2 -749886180#1 -749886180#0 749886180#0 749886180#1 749886180#2"/>
    </vehicle>
    <vehicle id="345" depart="248.40">
        <route edges="46830027 750606428#0 750606428#1 -749886181 -750603169"/>
    </vehicle>
    <vehicle id="346" depart="249.12">
        <route edges="46830027 750606427 750606422 1153822133 750603168"/>
    </vehicle>
    <vehicle id="355" depart="255.60">
        <route edges="46830027 750606427 26612450 750606424 749886180#0 749886180#1 749886180#2"/>
    </vehicle>
    <vehicle id="359" depart="258.48">
        <route edges="-749886180#2 -749886180#1 -749886180#0 -750606424 -26612450 -750606427 -46830027"/>
    </vehicle>
    <vehicle id="362" depart="260.64">
        <route edges="750603169 749886181 750606426#0 750606426#1 750606422 1153822133 750603168"/>
    </vehicle>
    <vehicle id="363" depart="261.36">
        <route edges="46830027 -46830027"/>
    </vehicle>
    <vehicle id="366" depart="263.52">
        <route edges="750603169 749886181 750606426#0 750606426#1 -750606427 -46830027"/>
    </vehicle>
    <vehicle id="367" depart="264.24">
        <route edges="1023038855 34958205#1 34958205#2"/>
    </vehicle>
    <vehicle id="369" depart="265.68">
        <route edges="-750603168 -1153822133 750606423#0 750606423#1 -46830027"/>
    </vehicle>
    <vehicle id="370" depart="266.40">
        <route edges="46830027 750606427 750606422 1153822133 750603168"/>
    </vehicle>
    <vehicle id="371" depart="267.12">
        <route edges="-749886180#2 -749886180#1 -749886180#0 749886180#0 749886180#1 749886180#2"/>
    </vehicle>
    <vehicle id="372" depart="267.84">
        <route edges="-749886180#2 -749886180#1 -749886180#0 758523518 1153822133 750603168"/>
    </vehicle>
    <vehicle id="374" depart="269.28">
        <route edges="-750603168 -1153822133 750606423#0 750606423#1 -46830027"/>
    </vehicle>
    <vehicle id="375" depart="270.00">
        <route edges="-749886180#2 -749886180#1 -749886180#0 758523518 1153822133 750603168"/>
    </vehicle>
    <vehicle id="379" depart="272.88">
        <route edges="-749886180#2 -749886180#1 -749886180#0 -750606424 -26612450 -750606426#1 -750606426#0 -749886181 -750603169"/>
    </vehicle>
    <vehicle id="381" depart="274.32">
        <route edges="46830027 -46830027"/>
    </vehicle>
    <vehicle id="383" depart="275.76">
        <route edges="-750603168 -1153822133 -750606422 26612450 750606424 749886180#0 749886180#1 749886180#2"/>
    </vehicle>
    <vehicle id="386" depart="277.92">
        <route edges="-34958205#2 -34958205#1 34958205#1 34958205#2"/>
    </vehicle>
    <vehicle id="387" depart="278.64">
        <route edges="1023038855 -1023038855"/>
    </vehicle>
    <vehicle id="388" depart="279.36">
        <route edges="750603169 749886181 750606426#0 750606426#1 750606422 1153822133 750603168"/>
    </vehicle>
    <vehicle id="390" depart="280.80">
        <route edges="46830027 750606428#0 750606428#1 -749886181 -750603169"/>
    </vehicle>
    <vehicle id="392" depart="282.24">
        <route edges="-749886180#2 -749886180#1 -749886180#0 758523518 1153822133 750603168"/>
    </vehicle>
    <vehicle id="393" depart="282.96">
        <route edges="750603169 749886181 750606426#0 750606426#1 -750606427 -46830027"/>
    </vehicle>
    <vehicle id="396" depart="285.12">
        <route edges="750603169 749886181 750606426#0 750606426#1 750606422 1153822133 750603168"/>
    </vehicle>
    <vehicle id="397" depart="285.84">
        <route edges="-749886180#2 -749886180#1 -749886180#0 749886180#0 749886180#1 749886180#2"/>
    </vehicle>
    <vehicle id="398" depart="286.56">
        <route edges="-750603168 -1153822133 1153822133 750603168"/>
    </vehicle>
    <vehicle id="400" depart="288.00">
        <route edges="-749886180#2 -749886180#1 -749886180#0 -750606424 -26612450 -750606427 -46830027"/>
    </vehicle>
    <vehicle id="404" depart="290.88">
        <route edges="1023038855 34958205#1 34958205#2"/>
    </vehicle>
    <vehicle id="405" depart="291.60">
        <route edges="-750603168 -1153822133 750606423#0 750606423#1 -46830027"/>
    </vehicle>
    <vehicle id="406" depart="292.32">
        <route edges="-749886180#2 -749886180#1 -749886180#0 749886180#0 749886180#1 749886180#2"/>
    </vehicle>
    <vehicle id="409" depart="294.48">
        <route edges="46830027 750606427 26612450 750606424 749886180#0 749886180#1 749886180#2"/>
    </vehicle>
    <vehicle id="410" depart="295.20">
        <route edges="46830027 750606428#0 750606428#1 -749886181 -750603169"/>
    </vehicle>
    <vehicle id="412" depart="296.64">