<?xml version="1.0" encoding="UTF-8"?>

<!-- generated on 2024-09-03 01:36:55 by Eclipse SUMO netconvert Version 1.20.0
<configuration xmlns:xsi="http://www.w3.org/2001/XMLSchema-instance" xsi:noNamespaceSchemaLocation="http://sumo.dlr.de/xsd/netconvertConfiguration.xsd">

    <input>
        <osm-files value="train_files/roundabout/easy/osm_files/map(42).osm"/>
    </input>

    <output>
        <output-file value="train_files/roundabout/easy/outputs/map(42)_dict/map(42)/map(42).net.xml"/>
    </output>

    <projection>
        <proj.utm value="true"/>
    </projection>

    <building_defaults>
        <default.junctions.keep-clear value="false"/>
    </building_defaults>

</configuration>
-->

<net version="1.20" junctionCornerDetail="5" limitTurnSpeed="5.50" xmlns:xsi="http://www.w3.org/2001/XMLSchema-instance" xsi:noNamespaceSchemaLocation="http://sumo.dlr.de/xsd/net_file.xsd">

    <location netOffset="-492591.40,-5411410.38" convBoundary="0.00,0.00,730.82,477.56" origBoundary="2.898993,48.855380,2.914906,48.859912" projParameter="+proj=utm +zone=31 +ellps=WGS84 +datum=WGS84 +units=m +no_defs"/>

    <type id="highway.footway" priority="1" numLanes="1" speed="2.78" allow="pedestrian" oneway="1" width="2.00"/>
    <type id="highway.path" priority="1" numLanes="1" speed="5.56" allow="pedestrian bicycle" oneway="0" width="2.00"/>
    <type id="highway.residential" priority="3" numLanes="1" speed="13.89" disallow="tram rail_urban rail rail_electric rail_fast ship container cable_car subway aircraft wheelchair scooter drone" oneway="0"/>
    <type id="highway.secondary" priority="11" numLanes="1" speed="27.78" disallow="tram rail_urban rail rail_electric rail_fast ship container cable_car subway aircraft wheelchair scooter drone" oneway="0"/>
    <type id="highway.service" priority="1" numLanes="1" speed="5.56" allow="pedestrian delivery bicycle" oneway="0"/>
    <type id="highway.steps" priority="1" numLanes="1" speed="1.39" allow="pedestrian" oneway="1" width="2.00"/>
    <type id="highway.unclassified" priority="4" numLanes="1" speed="13.89" disallow="tram rail_urban rail rail_electric rail_fast ship container cable_car subway aircraft wheelchair scooter drone" oneway="0"/>

    <edge id=":10036128231_0" function="internal">
        <lane id=":10036128231_0_0" index="0" allow="pedestrian delivery bicycle" speed="5.56" length="5.26" shape="593.57,285.75 591.93,280.76"/>
    </edge>
    <edge id=":10036128236_0" function="internal">
        <lane id=":10036128236_0_0" index="0" disallow="tram rail_urban rail rail_electric rail_fast ship container cable_car subway aircraft wheelchair scooter drone" speed="13.89" length="4.94" shape="615.79,313.16 610.86,312.77"/>
    </edge>
    <edge id=":10036128236_1" function="internal">
        <lane id=":10036128236_1_0" index="0" disallow="tram rail_urban rail rail_electric rail_fast ship container cable_car subway aircraft wheelchair scooter drone" speed="13.89" length="4.94" shape="611.11,309.58 616.03,309.97"/>
    </edge>
    <edge id=":10036128237_0" function="internal">
        <lane id=":10036128237_0_0" index="0" disallow="tram rail_urban rail rail_electric rail_fast ship container cable_car subway aircraft wheelchair scooter drone" speed="27.78" length="4.46" shape="610.93,279.90 610.51,281.15 610.13,281.96 609.63,282.73 608.89,283.83"/>
    </edge>
    <edge id=":10036128238_0" function="internal">
        <lane id=":10036128238_0_0" index="0" disallow="tram rail_urban rail rail_electric rail_fast ship container cable_car subway aircraft wheelchair scooter drone" speed="7.74" length="3.07" shape="605.98,280.59 608.05,278.32"/>
    </edge>
    <edge id=":10036128241_0" function="internal">
        <lane id=":10036128241_0_0" index="0" disallow="tram rail_urban rail rail_electric rail_fast ship container cable_car subway aircraft wheelchair scooter drone" speed="8.03" length="5.78" shape="597.95,288.26 598.99,287.97 600.10,287.32 601.27,286.30 602.50,284.91"/>
    </edge>
    <edge id=":10036128241_1" function="internal">
        <lane id=":10036128241_1_0" index="0" disallow="tram rail_urban rail rail_electric rail_fast ship container cable_car subway aircraft wheelchair scooter drone" speed="14.33" length="5.13" shape="597.95,288.26 599.46,288.16 600.49,288.24 601.51,288.51 602.96,288.97"/>
    </edge>
    <edge id=":10036128243_0" function="internal">
        <lane id=":10036128243_0_0" index="0" allow="pedestrian delivery bicycle" speed="6.07" length="4.19" shape="594.25,290.47 594.45,289.92 594.44,289.05 594.22,287.88 593.79,286.40"/>
    </edge>
    <edge id=":10036128243_1" function="internal">
        <lane id=":10036128243_1_0" index="0" disallow="tram rail_urban rail rail_electric rail_fast ship container cable_car subway aircraft wheelchair scooter drone" speed="6.77" length="4.16" shape="594.25,290.47 595.03,289.59 595.86,288.93 596.73,288.50 597.65,288.29"/>
    </edge>
    <edge id=":10036128244_0" function="internal">
        <lane id=":10036128244_0_0" index="0" disallow="tram rail_urban rail rail_electric rail_fast ship container cable_car subway aircraft wheelchair scooter drone" speed="6.44" length="4.59" shape="589.81,291.75 591.35,291.71 592.58,291.51 593.51,291.15 594.12,290.63"/>
    </edge>
    <edge id=":10036128244_1" function="internal">
        <lane id=":10036128244_1_0" index="0" disallow="tram rail_urban rail rail_electric rail_fast ship container cable_car subway aircraft wheelchair scooter drone" speed="12.56" length="4.00" shape="592.58,294.26 592.86,293.11 593.09,292.32 593.45,291.59 594.12,290.63"/>
    </edge>
    <edge id=":10036128246_0" function="internal">
        <lane id=":10036128246_0_0" index="0" disallow="tram rail_urban rail rail_electric rail_fast ship container cable_car subway aircraft wheelchair scooter drone" speed="9.34" length="6.94" shape="595.10,299.94 593.42,298.73 592.16,297.95 590.80,297.60 588.81,297.68"/>
    </edge>
    <edge id=":10036128246_1" function="internal">
        <lane id=":10036128246_1_0" index="0" disallow="tram rail_urban rail rail_electric rail_fast ship container cable_car subway aircraft wheelchair scooter drone" speed="6.45" length="6.47" shape="595.10,299.94 593.67,298.73 592.77,297.41 592.39,295.99 592.53,294.46"/>
    </edge>
    <edge id=":10036128248_0" function="internal">
        <lane id=":10036128248_0_0" index="0" disallow="tram rail_urban rail rail_electric rail_fast ship container cable_car subway aircraft wheelchair scooter drone" speed="8.36" length="6.68" shape="599.81,305.29 599.42,304.09 598.59,302.86 597.32,301.59 595.62,300.29"/>
    </edge>
    <edge id=":10036128248_1" function="internal">
        <lane id=":10036128248_1_0" index="0" disallow="tram rail_urban rail rail_electric rail_fast ship container cable_car subway aircraft wheelchair scooter drone" speed="8.44" length="6.42" shape="601.84,301.04 599.95,301.28 598.28,301.24 596.84,300.91 595.62,300.29"/>
    </edge>
    <edge id=":1356793201_0" function="internal">
        <lane id=":1356793201_0_0" index="0" disallow="tram rail_urban rail rail_electric rail_fast ship container cable_car subway aircraft wheelchair scooter drone" speed="3.65" length="4.67" shape="622.45,266.79 623.89,266.69 624.69,267.08 624.87,267.96 624.41,269.32"/>
    </edge>
    <edge id=":1356793209_0" function="internal">
        <lane id=":1356793209_0_0" index="0" disallow="tram rail_urban rail rail_electric rail_fast ship container cable_car subway aircraft wheelchair scooter drone" speed="3.65" length="4.67" shape="599.02,386.62 598.01,387.65 597.15,387.89 596.44,387.35 595.88,386.02"/>
    </edge>
    <edge id=":2688682532_0" function="internal">
        <lane id=":2688682532_0_0" index="0" disallow="tram rail_urban rail rail_electric rail_fast ship container cable_car subway aircraft wheelchair scooter drone" speed="13.89" length="3.84" shape="585.85,292.33 586.93,291.99 587.70,291.81 588.47,291.74 589.61,291.75"/>
    </edge>
    <edge id=":2688682557_0" function="internal">
        <lane id=":2688682557_0_0" index="0" disallow="tram rail_urban rail rail_electric rail_fast ship container cable_car subway aircraft wheelchair scooter drone" speed="7.85" length="1.36" shape="603.16,289.03 601.98,288.35"/>
    </edge>
    <edge id=":2688682590_0" function="internal">
        <lane id=":2688682590_0_0" index="0" disallow="tram rail_urban rail rail_electric rail_fast ship container cable_car subway aircraft wheelchair scooter drone" speed="5.98" length="2.03" shape="612.59,278.46 610.99,279.71"/>
    </edge>
    <edge id=":2688682590_1" function="internal">
        <lane id=":2688682590_1_0" index="0" disallow="tram rail_urban rail rail_electric rail_fast ship container cable_car subway aircraft wheelchair scooter drone" speed="3.65" length="1.31" shape="612.59,278.46 611.28,278.55"/>
    </edge>
    <edge id=":2688682590_4" function="internal">
        <lane id=":2688682590_4_0" index="0" disallow="tram rail_urban rail rail_electric rail_fast ship container cable_car subway aircraft wheelchair scooter drone" speed="3.65" length="3.36" shape="611.28,278.55 611.15,278.56 610.34,278.17 610.17,277.30 610.63,275.93"/>
    </edge>
    <edge id=":2688682590_2" function="internal">
        <lane id=":2688682590_2_0" index="0" disallow="tram rail_urban rail rail_electric rail_fast ship container cable_car subway aircraft wheelchair scooter drone" speed="16.68" length="3.40" shape="608.24,278.26 609.09,277.81 609.53,277.27 609.92,276.65 610.63,275.93"/>
    </edge>
    <edge id=":2688682590_3" function="internal">
        <lane id=":2688682590_3_0" index="0" disallow="tram rail_urban rail rail_electric rail_fast ship container cable_car subway aircraft wheelchair scooter drone" speed="4.10" length="3.51" shape="608.24,278.26 609.75,277.89 610.71,278.01 611.12,278.62 611.09,278.87"/>
    </edge>
    <edge id=":2688682590_5" function="internal">
        <lane id=":2688682590_5_0" index="0" disallow="tram rail_urban rail rail_electric rail_fast ship container cable_car subway aircraft wheelchair scooter drone" speed="4.10" length="0.84" shape="611.09,278.87 610.99,279.71"/>
    </edge>
    <edge id=":2688682652_0" function="internal">
        <lane id=":2688682652_0_0" index="0" disallow="tram rail_urban rail rail_electric rail_fast ship container cable_car subway aircraft wheelchair scooter drone" speed="8.07" length="5.87" shape="605.42,297.62 604.89,298.70 604.61,300.01 604.59,301.55 604.83,303.32"/>
    </edge>
    <edge id=":2688682652_1" function="internal">
        <lane id=":2688682652_1_0" index="0" disallow="tram rail_urban rail rail_electric rail_fast ship container cable_car subway aircraft wheelchair scooter drone" speed="7.60" length="5.02" shape="605.42,297.62 604.65,298.92 604.10,299.88 603.37,300.56 602.04,301.00"/>
    </edge>
    <edge id=":4121523023_0" function="internal">
        <lane id=":4121523023_0_0" index="0" disallow="tram rail_urban rail rail_electric rail_fast ship container cable_car subway aircraft wheelchair scooter drone" speed="9.32" length="6.93" shape="606.84,286.93 605.84,288.67 605.48,290.03 605.55,291.49 605.86,293.53"/>
    </edge>
    <edge id=":4121523023_1" function="internal">
        <lane id=":4121523023_1_0" index="0" disallow="tram rail_urban rail rail_electric rail_fast ship container cable_car subway aircraft wheelchair scooter drone" speed="8.94" length="6.54" shape="602.13,288.47 603.67,289.67 604.74,290.59 605.43,291.71 605.86,293.53"/>
    </edge>
    <edge id=":5490392373_0" function="internal">
        <lane id=":5490392373_0_0" index="0" allow="pedestrian bicycle" speed="2.89" length="2.92" width="2.00" shape="0.84,478.10 0.01,478.46 -0.54,478.40 -0.83,477.92 -0.84,477.02"/>
    </edge>
    <edge id=":564880474_0" function="internal">
        <lane id=":564880474_0_0" index="0" disallow="tram rail_urban rail rail_electric rail_fast ship container cable_car subway aircraft wheelchair scooter drone" speed="27.78" length="13.09" shape="602.74,318.23 602.28,314.83 601.47,311.84 600.57,308.86 599.84,305.49"/>
    </edge>
    <edge id=":564880474_1" function="internal">
        <lane id=":564880474_1_0" index="0" disallow="tram rail_urban rail rail_electric rail_fast ship container cable_car subway aircraft wheelchair scooter drone" speed="7.61" length="4.36" shape="602.74,318.23 603.07,314.19 603.21,313.92"/>
    </edge>
    <edge id=":564880474_2" function="internal">
        <lane id=":564880474_2_0" index="0" disallow="tram rail_urban rail rail_electric rail_fast ship container cable_car subway aircraft wheelchair scooter drone" speed="3.65" length="1.44" shape="602.74,318.23 603.48,316.99"/>
    </edge>
    <edge id=":564880474_9" function="internal">
        <lane id=":564880474_9_0" index="0" disallow="tram rail_urban rail rail_electric rail_fast ship container cable_car subway aircraft wheelchair scooter drone" speed="7.61" length="9.65" shape="603.21,313.92 604.54,311.40 607.15,309.86 610.91,309.57"/>
    </edge>
    <edge id=":564880474_10" function="internal">
        <lane id=":564880474_10_0" index="0" disallow="tram rail_urban rail rail_electric rail_fast ship container cable_car subway aircraft wheelchair scooter drone" speed="3.65" length="3.23" shape="603.48,316.99 604.25,316.55 605.07,316.91 605.94,318.06"/>
    </edge>
    <edge id=":564880474_3" function="internal">
        <lane id=":564880474_3_0" index="0" disallow="tram rail_urban rail rail_electric rail_fast ship container cable_car subway aircraft wheelchair scooter drone" speed="6.03" length="8.35" shape="610.66,312.76 608.48,312.95 606.97,313.89 606.12,315.60 605.94,318.06"/>
    </edge>
    <edge id=":564880474_4" function="internal">
        <lane id=":564880474_4_0" index="0" disallow="tram rail_urban rail rail_electric rail_fast ship container cable_car subway aircraft wheelchair scooter drone" speed="8.73" length="14.14" shape="610.66,312.76 606.29,312.02 603.03,310.56 600.88,308.38 599.84,305.49"/>
    </edge>
    <edge id=":564880474_5" function="internal">
        <lane id=":564880474_5_0" index="0" disallow="tram rail_urban rail rail_electric rail_fast ship container cable_car subway aircraft wheelchair scooter drone" speed="3.65" length="4.67" shape="610.66,312.76 609.53,311.87 609.19,311.04 609.65,310.27 610.91,309.57"/>
    </edge>
    <edge id=":564880474_6" function="internal">
        <lane id=":564880474_6_0" index="0" disallow="tram rail_urban rail rail_electric rail_fast ship container cable_car subway aircraft wheelchair scooter drone" speed="7.29" length="9.23" shape="604.88,303.55 605.66,306.04 606.93,307.87 608.68,309.05 610.91,309.57"/>
    </edge>
    <edge id=":564880474_7" function="internal">
        <lane id=":564880474_7_0" index="0" disallow="tram rail_urban rail rail_electric rail_fast ship container cable_car subway aircraft wheelchair scooter drone" speed="27.78" length="14.56" shape="604.88,303.55 605.41,307.19 605.66,310.78 605.79,314.38 605.94,318.06"/>
    </edge>
    <edge id=":564880474_8" function="internal">
        <lane id=":564880474_8_0" index="0" disallow="tram rail_urban rail rail_electric rail_fast ship container cable_car subway aircraft wheelchair scooter drone" speed="3.85" length="3.91" shape="604.88,303.55 601.22,304.96"/>
    </edge>
    <edge id=":564880474_11" function="internal">
        <lane id=":564880474_11_0" index="0" disallow="tram rail_urban rail rail_electric rail_fast ship container cable_car subway aircraft wheelchair scooter drone" speed="3.85" length="1.48" shape="601.22,304.96 599.84,305.49"/>
    </edge>
    <edge id=":564880476_0" function="internal">
        <lane id=":564880476_0_0" index="0" disallow="tram rail_urban rail rail_electric rail_fast ship container cable_car subway aircraft wheelchair scooter drone" speed="3.65" length="4.67" shape="728.93,320.26 730.05,321.17 730.37,322.00 729.90,322.76 728.63,323.45"/>
    </edge>
    <edge id=":6700608897_0" function="internal">
        <lane id=":6700608897_0_0" index="0" disallow="tram rail_urban rail rail_electric rail_fast ship container cable_car subway aircraft wheelchair scooter drone" speed="27.78" length="4.67" shape="605.94,318.18 606.01,319.57 606.02,320.52 605.97,321.46 605.86,322.84"/>
    </edge>
    <edge id=":6700608897_1" function="internal">
        <lane id=":6700608897_1_0" index="0" disallow="tram rail_urban rail rail_electric rail_fast ship container cable_car subway aircraft wheelchair scooter drone" speed="27.78" length="4.24" shape="602.67,322.59 602.77,321.33 602.82,320.47 602.81,319.61 602.75,318.35"/>
    </edge>
    <edge id=":6700610536_0" function="internal">
        <lane id=":6700610536_0_0" index="0" allow="pedestrian delivery bicycle" speed="5.56" length="4.42" shape="575.04,276.47 575.29,277.75 575.37,278.67 575.20,279.55 574.72,280.76"/>
    </edge>
    <edge id=":6700610538_0" function="internal">
        <lane id=":6700610538_0_0" index="0" allow="pedestrian delivery bicycle" speed="5.02" length="5.03" shape="574.54,292.56 575.10,293.82 575.93,294.59 577.03,294.86 578.40,294.64"/>
    </edge>
    <edge id=":6700610538_1" function="internal">
        <lane id=":6700610538_1_0" index="0" disallow="tram rail_urban rail rail_electric rail_fast ship container cable_car subway aircraft wheelchair scooter drone" speed="13.89" length="6.01" shape="572.79,296.77 574.41,296.04 575.54,295.57 576.70,295.18 578.40,294.64"/>
    </edge>
    <edge id=":6700610539_0" function="internal">
        <lane id=":6700610539_0_0" index="0" allow="pedestrian delivery bicycle" speed="5.56" length="5.11" shape="574.63,211.50 569.67,212.75"/>
    </edge>
    <edge id=":6700687040_0" function="internal">
        <lane id=":6700687040_0_0" index="0" disallow="tram rail_urban rail rail_electric rail_fast ship container cable_car subway aircraft wheelchair scooter drone" speed="13.89" length="4.92" shape="632.64,314.50 627.73,314.08"/>
    </edge>
    <edge id=":6700687040_1" function="internal">
        <lane id=":6700687040_1_0" index="0" disallow="tram rail_urban rail rail_electric rail_fast ship container cable_car subway aircraft wheelchair scooter drone" speed="13.89" length="4.97" shape="627.98,310.89 632.94,311.31"/>
    </edge>
    <edge id=":6700806902_0" function="internal">
        <lane id=":6700806902_0_0" index="0" allow="pedestrian delivery bicycle" speed="5.56" length="7.37" shape="591.37,278.58 591.91,276.46 592.32,275.02 592.81,273.60 593.56,271.55"/>
    </edge>
    <edge id=":966157061_0" function="internal">
        <lane id=":966157061_0_0" index="0" disallow="tram rail_urban rail rail_electric rail_fast ship container cable_car subway aircraft wheelchair scooter drone" speed="13.89" length="21.85" shape="571.02,301.50 566.35,302.63 560.53,304.49 554.75,306.49 550.19,308.07"/>
    </edge>
    <edge id=":966157061_1" function="internal">
        <lane id=":966157061_1_0" index="0" allow="pedestrian bicycle" speed="9.72" length="3.47" width="2.00" shape="571.02,301.50 567.55,301.67"/>
    </edge>
    <edge id=":966157061_7" function="internal">
        <lane id=":966157061_7_0" index="0" allow="pedestrian bicycle" speed="9.72" length="18.49" width="2.00" shape="567.55,301.67 566.18,301.74 559.99,301.63 553.84,301.66 549.10,302.31"/>
    </edge>
    <edge id=":966157061_2" function="internal">
        <lane id=":966157061_2_0" index="0" allow="pedestrian bicycle" speed="9.72" length="19.80" width="2.00" shape="549.91,299.96 554.35,299.35 559.82,299.32 565.25,299.19 569.56,298.26"/>
    </edge>
    <edge id=":966157061_3" function="internal">
        <lane id=":966157061_3_0" index="0" allow="pedestrian bicycle" speed="4.28" length="8.11" width="2.00" shape="549.91,299.96 550.19,308.07"/>
    </edge>
    <edge id=":966157061_4" function="internal">
        <lane id=":966157061_4_0" index="0" allow="pedestrian bicycle" speed="3.11" length="3.64" width="2.00" shape="549.91,299.96 550.59,300.85 550.68,301.54 550.18,302.03 549.10,302.31"/>
    </edge>
    <edge id=":966157061_5" function="internal">
        <lane id=":966157061_5_0" index="0" allow="pedestrian bicycle" speed="3.10" length="2.71" width="2.00" shape="549.20,305.02 549.10,302.31"/>
    </edge>
    <edge id=":966157061_6" function="internal">
        <lane id=":966157061_6_0" index="0" disallow="tram rail_urban rail rail_electric rail_fast ship container cable_car subway aircraft wheelchair scooter drone" speed="13.89" length="21.47" shape="549.20,305.02 553.74,303.60 559.46,301.84 565.13,299.98 569.56,298.26"/>
    </edge>
    <edge id=":966159083_0" function="internal">
        <lane id=":966159083_0_0" index="0" disallow="tram rail_urban rail rail_electric rail_fast ship container cable_car subway aircraft wheelchair scooter drone" speed="3.65" length="4.67" shape="17.89,475.31 16.54,474.81 15.97,474.12 16.18,473.25 17.17,472.20"/>
    </edge>

    <edge id="-263233830#0" from="6700608897" to="1356793209" priority="11" type="highway.secondary" shape="604.46,320.39 601.33,359.10 600.06,372.76 597.45,386.32">
        <lane id="-263233830#0_0" index="0" disallow="tram rail_urban rail rail_electric rail_fast ship container cable_car subway aircraft wheelchair scooter drone" speed="27.78" length="64.21" shape="605.86,322.84 602.93,359.24 601.65,372.98 599.02,386.62"/>
        <param key="ref" value="D 33"/>
    </edge>
    <edge id="-263233830#1" from="564880474" to="6700608897" priority="11" type="highway.secondary">
        <lane id="-263233830#1_0" index="0" disallow="tram rail_urban rail rail_electric rail_fast ship container cable_car subway aircraft wheelchair scooter drone" speed="27.78" length="0.12" shape="605.94,318.06 605.94,318.18"/>
        <param key="ref" value="D 33"/>
    </edge>
    <edge id="-263248945" from="966159083" to="966157061" priority="4" type="highway.unclassified" shape="17.53,473.76 67.99,462.05 86.72,455.93 192.28,421.43 215.22,414.05 329.09,378.25 465.06,334.11 509.40,319.71 569.03,300.23">
        <lane id="-263248945_0" index="0" disallow="tram rail_urban rail rail_electric rail_fast ship container cable_car subway aircraft wheelchair scooter drone" speed="13.89" length="557.84" shape="17.17,472.20 67.56,460.51 86.22,454.41 191.79,419.90 214.74,412.52 328.61,376.73 464.57,332.58 508.91,318.19 549.20,305.02"/>
    </edge>
    <edge id="-263248962" from="1356793201" to="2688682590" priority="11" type="highway.secondary">
        <lane id="-263248962_0" index="0" disallow="tram rail_urban rail rail_electric rail_fast ship container cable_car subway aircraft wheelchair scooter drone" speed="27.78" length="14.94" shape="624.41,269.32 612.59,278.46"/>
        <param key="ref" value="D 33"/>
    </edge>
    <edge id="-44444288#0" from="10036128236" to="564880474" priority="3" type="highway.residential">
        <lane id="-44444288#0_0" index="0" disallow="tram rail_urban rail rail_electric rail_fast ship container cable_car subway aircraft wheelchair scooter drone" speed="13.89" length="0.20" shape="610.86,312.77 610.66,312.76"/>
    </edge>
    <edge id="-44444288#1" from="6700687040" to="10036128236" priority="3" type="highway.residential">
        <lane id="-44444288#1_0" index="0" disallow="tram rail_urban rail rail_electric rail_fast ship container cable_car subway aircraft wheelchair scooter drone" speed="13.89" length="11.98" shape="627.73,314.08 615.79,313.16"/>
    </edge>
    <edge id="-44444288#2" from="564880476" to="6700687040" priority="3" type="highway.residential" shape="728.78,321.86 666.47,316.06 630.41,312.68">
        <lane id="-44444288#2_0" index="0" disallow="tram rail_urban rail rail_electric rail_fast ship container cable_car subway aircraft wheelchair scooter drone" speed="13.89" length="96.41" shape="728.63,323.45 666.32,317.65 632.64,314.50"/>
    </edge>
    <edge id="-571215723" from="5490392373" to="966157061" priority="1" type="highway.path" shape="0.00,477.56 3.24,472.55 14.46,470.07 16.98,469.45 41.10,463.59 86.07,450.21 90.56,448.90 101.60,445.85 191.61,416.13 213.43,409.78 250.39,398.50 304.82,380.33 327.11,373.21 387.47,353.53 420.82,341.61 512.64,312.80 561.94,297.20 569.03,300.23">
        <lane id="-571215723_0" index="0" allow="pedestrian bicycle" speed="5.56" length="580.14" width="2.00" shape="-0.84,477.02 2.62,471.66 14.24,469.09 16.74,468.48 40.84,462.62 85.79,449.25 90.29,447.94 101.31,444.90 191.31,415.18 213.14,408.82 250.08,397.54 304.51,379.38 326.81,372.26 387.15,352.59 420.50,340.66 512.33,311.85 549.91,299.96"/>
    </edge>
    <edge id="1065932458" from="6700608897" to="9788857404" priority="1" type="highway.footway" spreadType="center">
        <lane id="1065932458_0" index="0" allow="pedestrian" speed="2.78" length="1.59" width="2.00" shape="609.11,320.52 610.70,320.56"/>
    </edge>
    <edge id="1065932459" from="9788857407" to="9788857403" priority="1" type="highway.steps" spreadType="center">
        <lane id="1065932459_0" index="0" allow="pedestrian" speed="1.39" length="0.20" width="2.00" shape="614.81,318.52 614.81,318.32"/>
    </edge>
    <edge id="1065932460#0" from="9788857408" to="9788857407" priority="1" type="highway.footway" spreadType="center">
        <lane id="1065932460#0_0" index="0" allow="pedestrian" speed="2.78" length="0.20" width="2.00" shape="616.78,320.72 616.58,320.72"/>
    </edge>
    <edge id="1065932460#1" from="9788857407" to="9788857404" priority="1" type="highway.footway" spreadType="center" shape="614.81,320.73 614.87,328.76 613.05,328.72 613.24,320.63">
        <lane id="1065932460#1_0" index="0" allow="pedestrian" speed="2.78" length="0.12" width="2.00" shape="613.18,323.24 613.18,323.12"/>
    </edge>
    <edge id="1095874485#0" from="10036128232" to="10036128231" priority="1" type="highway.footway" spreadType="center">
        <lane id="1095874485#0_0" index="0" allow="pedestrian" speed="2.78" length="9.24" width="2.00" shape="603.84,277.44 595.71,281.85"/>
    </edge>
    <edge id="1095874485#1" from="10036128231" to="6700610525" priority="1" type="highway.footway" spreadType="center">
        <lane id="1095874485#1_0" index="0" allow="pedestrian" speed="2.78" length="0.24" width="2.00" shape="590.03,284.24 589.80,284.31"/>
    </edge>
    <edge id="1095874486#0" from="10036128232" to="10036128238" priority="1" type="highway.footway" spreadType="center">
        <lane id="1095874486#0_0" index="0" allow="pedestrian" speed="2.78" length="0.20" width="2.00" shape="606.50,277.07 606.63,277.22"/>
    </edge>
    <edge id="1095874486#1" from="10036128238" to="10036128237" priority="1" type="highway.footway" spreadType="center">
        <lane id="1095874486#1_0" index="0" allow="pedestrian" speed="2.78" length="0.20" width="2.00" shape="608.93,279.77 609.06,279.92"/>
    </edge>
    <edge id="1095874486#2" from="10036128237" to="10036128233" priority="1" type="highway.footway" spreadType="center">
        <lane id="1095874486#2_0" index="0" allow="pedestrian" speed="2.78" length="0.20" width="2.00" shape="611.96,282.95 612.10,283.09"/>
    </edge>
    <edge id="1095874487#0" from="9788857404" to="10036128236" priority="1" type="highway.footway" spreadType="center">
        <lane id="1095874487#0_0" index="0" allow="pedestrian" speed="2.78" length="1.94" width="2.00" shape="613.21,318.09 613.18,316.15"/>
    </edge>
    <edge id="1095874487#1" from="10036128236" to="10036128235" priority="1" type="highway.footway" spreadType="center">
        <lane id="1095874487#1_0" index="0" allow="pedestrian" speed="2.78" length="3.75" width="2.00" shape="612.86,306.49 612.65,302.75"/>
    </edge>
    <edge id="1095874487#2" from="10036128235" to="10036128234" priority="1" type="highway.footway" spreadType="center">
        <lane id="1095874487#2_0" index="0" allow="pedestrian" speed="2.78" length="4.68" width="2.00" shape="612.45,297.70 612.35,293.02"/>
    </edge>
    <edge id="1095874487#3" from="10036128234" to="10036128233" priority="1" type="highway.footway" spreadType="center">
        <lane id="1095874487#3_0" index="0" allow="pedestrian" speed="2.78" length="2.41" width="2.00" shape="612.41,287.95 612.52,285.54"/>
    </edge>
    <edge id="1095874488" from="2688682652" to="564880474" priority="11" type="highway.secondary" spreadType="center" shape="604.10,299.55 605.23,305.39 603.95,310.63">
        <lane id="1095874488_0" index="0" disallow="tram rail_urban rail rail_electric rail_fast ship container cable_car subway aircraft wheelchair scooter drone" speed="27.78" length="0.24" shape="604.83,303.32 604.88,303.55"/>
        <param key="ref" value="D 33"/>
    </edge>
    <edge id="1095874489#0" from="2688682590" to="10036128237" priority="11" type="highway.secondary" spreadType="center">
        <lane id="1095874489#0_0" index="0" disallow="tram rail_urban rail rail_electric rail_fast ship container cable_car subway aircraft wheelchair scooter drone" speed="27.78" length="0.20" shape="610.99,279.71 610.93,279.90"/>
        <param key="ref" value="D 33"/>
    </edge>
    <edge id="1095874489#1" from="10036128237" to="4121523023" priority="11" type="highway.secondary" spreadType="center">
        <lane id="1095874489#1_0" index="0" disallow="tram rail_urban rail rail_electric rail_fast ship container cable_car subway aircraft wheelchair scooter drone" speed="27.78" length="3.72" shape="608.89,283.83 606.84,286.93"/>
        <param key="ref" value="D 33"/>
    </edge>
    <edge id="1095874490" from="10036128246" to="966157061" priority="4" type="highway.unclassified" spreadType="center" shape="592.97,297.17 587.83,297.80 576.27,300.66 568.93,301.83">
        <lane id="1095874490_0" index="0" disallow="tram rail_urban rail rail_electric rail_fast ship container cable_car subway aircraft wheelchair scooter drone" speed="13.89" length="18.21" shape="588.81,297.68 587.83,297.80 576.27,300.66 571.02,301.50"/>
    </edge>
    <edge id="263233830#0" from="1356793209" to="6700608897" priority="11" type="highway.secondary" shape="597.45,386.32 600.06,372.76 601.33,359.10 604.46,320.39">