<?xml version="1.0" encoding="UTF-8"?>

<!-- generated on 2024-09-03 01:36:48 by Eclipse SUMO netconvert Version 1.20.0
<configuration xmlns:xsi="http://www.w3.org/2001/XMLSchema-instance" xsi:noNamespaceSchemaLocation="http://sumo.dlr.de/xsd/netconvertConfiguration.xsd">

    <input>
        <osm-files value="train_files/roundabout/easy/osm_files/map(16).osm"/>
    </input>

    <output>
        <output-file value="train_files/roundabout/easy/outputs/map(16)_dict/map(16)/map(16).net.xml"/>
    </output>

    <projection>
        <proj.utm value="true"/>
    </projection>

    <building_defaults>
        <default.junctions.keep-clear value="false"/>
    </building_defaults>

</configuration>
-->

<net version="1.20" junctionCornerDetail="5" limitTurnSpeed="5.50" xmlns:xsi="http://www.w3.org/2001/XMLSchema-instance" xsi:noNamespaceSchemaLocation="http://sumo.dlr.de/xsd/net_file.xsd">

    <location netOffset="-434947.02,-5438897.39" convBoundary="0.00,0.00,4498.35,3720.73" origBoundary="2.108818,49.099483,2.170026,49.132992" projParameter="+proj=utm +zone=31 +ellps=WGS84 +datum=WGS84 +units=m +no_defs"/>

    <type id="highway.primary" priority="12" numLanes="2" speed="27.78" disallow="tram rail_urban rail rail_electric rail_fast ship container cable_car subway aircraft wheelchair scooter drone" oneway="0"/>
    <type id="highway.secondary" priority="11" numLanes="1" speed="27.78" disallow="tram rail_urban rail rail_electric rail_fast ship container cable_car subway aircraft wheelchair scooter drone" oneway="0"/>
    <type id="highway.tertiary" priority="10" numLanes="1" speed="22.22" disallow="tram rail_urban rail rail_electric rail_fast ship container cable_car subway aircraft wheelchair scooter drone" oneway="0"/>
    <type id="highway.track" priority="1" numLanes="1" speed="5.56" allow="pedestrian motorcycle moped bicycle" oneway="0"/>
    <type id="highway.unclassified" priority="4" numLanes="1" speed="13.89" disallow="tram rail_urban rail rail_electric rail_fast ship container cable_car subway aircraft wheelchair scooter drone" oneway="0"/>

    <edge id=":2069873166_0" function="internal">
        <lane id=":2069873166_0_0" index="0" allow="pedestrian motorcycle moped bicycle" speed="3.65" length="4.67" shape="1336.74,276.37 1337.80,275.39 1338.67,275.19 1339.36,275.76 1339.86,277.11"/>
    </edge>
    <edge id=":2069873183_0" function="internal">
        <lane id=":2069873183_0_0" index="0" disallow="tram rail_urban rail rail_electric rail_fast ship container cable_car subway aircraft wheelchair scooter drone" speed="22.22" length="8.04" shape="1442.17,545.91 1436.04,540.71"/>
    </edge>
    <edge id=":2069873183_1" function="internal">
        <lane id=":2069873183_1_0" index="0" disallow="tram rail_urban rail rail_electric rail_fast ship container cable_car subway aircraft wheelchair scooter drone" speed="22.22" length="8.22" shape="1438.12,538.28 1440.21,539.49 1442.05,539.60 1443.92,539.65 1446.15,540.70"/>
        <lane id=":2069873183_1_1" index="1" disallow="tram rail_urban rail rail_electric rail_fast ship container cable_car subway aircraft wheelchair scooter drone" speed="22.22" length="8.22" shape="1438.12,538.28 1439.86,539.84 1441.08,540.86 1442.35,541.84 1444.21,543.24"/>
    </edge>
    <edge id=":2069873195_0" function="internal">
        <lane id=":2069873195_0_0" index="0" disallow="tram rail_urban rail rail_electric rail_fast ship container cable_car subway aircraft wheelchair scooter drone" speed="22.22" length="13.80" shape="1580.31,606.26 1566.72,608.70"/>
    </edge>
    <edge id=":2069873195_1" function="internal">
        <lane id=":2069873195_1_0" index="0" allow="pedestrian motorcycle moped bicycle" speed="8.01" length="3.81" shape="1580.31,606.26 1576.49,606.24"/>
    </edge>
    <edge id=":2069873195_2" function="internal">
        <lane id=":2069873195_2_0" index="0" disallow="tram rail_urban rail rail_electric rail_fast ship container cable_car subway aircraft wheelchair scooter drone" speed="3.65" length="1.44" shape="1580.31,606.26 1579.01,605.63"/>
    </edge>
    <edge id=":2069873195_9" function="internal">
        <lane id=":2069873195_9_0" index="0" allow="pedestrian motorcycle moped bicycle" speed="8.01" length="10.14" shape="1576.49,606.24 1573.57,605.01 1571.55,602.57 1570.42,598.93"/>
    </edge>
    <edge id=":2069873195_10" function="internal">
        <lane id=":2069873195_10_0" index="0" disallow="tram rail_urban rail rail_electric rail_fast ship container cable_car subway aircraft wheelchair scooter drone" speed="3.65" length="3.23" shape="1579.01,605.63 1578.50,604.89 1578.79,604.04 1579.87,603.09"/>
    </edge>
    <edge id=":2069873195_3" function="internal">
        <lane id=":2069873195_3_0" index="0" allow="pedestrian motorcycle moped bicycle" speed="6.51" length="8.88" shape="1573.58,598.42 1574.30,600.74 1575.59,602.29 1577.44,603.07 1579.87,603.09"/>
    </edge>
    <edge id=":2069873195_4" function="internal">
        <lane id=":2069873195_4_0" index="0" allow="pedestrian motorcycle moped bicycle" speed="8.11" length="13.90" shape="1573.58,598.42 1573.66,602.23 1572.54,605.21 1570.23,607.36 1566.72,608.70"/>
    </edge>
    <edge id=":2069873195_5" function="internal">
        <lane id=":2069873195_5_0" index="0" allow="pedestrian motorcycle moped bicycle" speed="3.65" length="4.67" shape="1573.58,598.42 1572.98,599.74 1572.26,600.26 1571.40,599.99 1570.42,598.93"/>
    </edge>
    <edge id=":2069873195_6" function="internal">
        <lane id=":2069873195_6_0" index="0" allow="pedestrian motorcycle moped bicycle" speed="6.63" length="8.98" shape="1566.02,605.59 1568.27,604.73 1569.76,603.33 1570.48,601.40 1570.42,598.93"/>
    </edge>
    <edge id=":2069873195_7" function="internal">
        <lane id=":2069873195_7_0" index="0" disallow="tram rail_urban rail rail_electric rail_fast ship container cable_car subway aircraft wheelchair scooter drone" speed="22.22" length="14.08" shape="1566.02,605.59 1579.87,603.09"/>
    </edge>
    <edge id=":2069873195_8" function="internal">
        <lane id=":2069873195_8_0" index="0" disallow="tram rail_urban rail rail_electric rail_fast ship container cable_car subway aircraft wheelchair scooter drone" speed="3.65" length="1.44" shape="1566.02,605.59 1567.36,606.10"/>
    </edge>
    <edge id=":2069873195_11" function="internal">
        <lane id=":2069873195_11_0" index="0" disallow="tram rail_urban rail rail_electric rail_fast ship container cable_car subway aircraft wheelchair scooter drone" speed="3.65" length="3.22" shape="1567.36,606.10 1567.93,606.79 1567.71,607.66 1566.72,608.70"/>
    </edge>
    <edge id=":2069873198_0" function="internal">
        <lane id=":2069873198_0_0" index="0" disallow="tram rail_urban rail rail_electric rail_fast ship container cable_car subway aircraft wheelchair scooter drone" speed="8.31" length="6.71" shape="1540.34,623.52 1539.28,625.33 1538.61,626.98 1538.33,628.46 1538.44,629.78"/>
    </edge>
    <edge id=":2069873198_1" function="internal">
        <lane id=":2069873198_1_0" index="0" disallow="tram rail_urban rail rail_electric rail_fast ship container cable_car subway aircraft wheelchair scooter drone" speed="22.22" length="7.04" shape="1535.80,623.15 1536.79,625.03 1537.42,626.35 1537.90,627.73 1538.44,629.78"/>
        <lane id=":2069873198_1_1" index="1" disallow="tram rail_urban rail rail_electric rail_fast ship container cable_car subway aircraft wheelchair scooter drone" speed="22.22" length="7.04" shape="1532.73,624.20 1533.70,626.01 1534.32,627.27 1534.80,628.59 1535.34,630.56"/>
    </edge>
    <edge id=":2069873203_0" function="internal">
        <lane id=":2069873203_0_0" index="0" disallow="tram rail_urban rail rail_electric rail_fast ship container cable_car subway aircraft wheelchair scooter drone" speed="22.22" length="12.41" shape="1532.03,665.73 1528.83,665.54 1526.23,665.49 1523.46,665.83 1519.76,666.79"/>
    </edge>
    <edge id=":2069873203_1" function="internal">
        <lane id=":2069873203_1_0" index="0" disallow="tram rail_urban rail rail_electric rail_fast ship container cable_car subway aircraft wheelchair scooter drone" speed="19.14" length="12.84" shape="1530.39,659.78 1527.63,662.45 1525.62,664.22 1523.34,665.52 1519.76,666.79"/>
        <lane id=":2069873203_1_1" index="1" disallow="tram rail_urban rail rail_electric rail_fast ship container cable_car subway aircraft wheelchair scooter drone" speed="15.67" length="12.84" shape="1529.01,656.58 1526.52,659.41 1524.61,661.23 1522.35,662.50 1518.83,663.74"/>
    </edge>
    <edge id=":2069873204_0" function="internal">
        <lane id=":2069873204_0_0" index="0" disallow="tram rail_urban rail rail_electric rail_fast ship container cable_car subway aircraft wheelchair scooter drone" speed="9.05" length="6.75" shape="1511.51,668.71 1509.64,669.14 1508.50,669.87 1507.56,670.99 1506.32,672.58"/>
    </edge>
    <edge id=":2069873204_1" function="internal">
        <lane id=":2069873204_1_0" index="0" disallow="tram rail_urban rail rail_electric rail_fast ship container cable_car subway aircraft wheelchair scooter drone" speed="22.22" length="6.88" shape="1511.51,668.71 1509.44,668.95 1508.01,669.02 1506.58,668.91 1504.52,668.61"/>
        <lane id=":2069873204_1_1" index="1" disallow="tram rail_urban rail rail_electric rail_fast ship container cable_car subway aircraft wheelchair scooter drone" speed="22.22" length="6.88" shape="1511.10,665.53 1509.12,665.76 1507.75,665.79 1506.38,665.65 1504.41,665.36"/>
    </edge>
    <edge id=":2069873209_0" function="internal">
        <lane id=":2069873209_0_0" index="0" disallow="tram rail_urban rail rail_electric rail_fast ship container cable_car subway aircraft wheelchair scooter drone" speed="22.22" length="8.11" shape="1481.03,763.98 1480.42,772.06"/>
    </edge>
    <edge id=":2069873209_1" function="internal">
        <lane id=":2069873209_1_0" index="0" disallow="tram rail_urban rail rail_electric rail_fast ship container cable_car subway aircraft wheelchair scooter drone" speed="22.22" length="8.53" shape="1477.23,771.78 1476.96,769.24 1476.01,767.57 1475.07,765.91 1474.82,763.37"/>
        <lane id=":2069873209_1_1" index="1" disallow="tram rail_urban rail rail_electric rail_fast ship container cable_car subway aircraft wheelchair scooter drone" speed="22.22" length="8.53" shape="1477.23,771.78 1478.01,763.68"/>
    </edge>
    <edge id=":2650554881_0" function="internal">
        <lane id=":2650554881_0_0" index="0" allow="pedestrian motorcycle moped bicycle" speed="13.89" length="30.29" shape="1638.44,579.57 1634.43,584.19 1628.98,591.35 1623.67,598.64 1620.09,603.64"/>
    </edge>
    <edge id=":2650554881_1" function="internal">
        <lane id=":2650554881_1_0" index="0" disallow="tram rail_urban rail rail_electric rail_fast ship container cable_car subway aircraft wheelchair scooter drone" speed="22.22" length="30.83" shape="1638.44,579.57 1633.68,583.58 1626.46,589.28 1619.09,594.78 1613.90,598.18"/>
    </edge>
    <edge id=":2650554881_2" function="internal">
        <lane id=":2650554881_2_0" index="0" disallow="tram rail_urban rail rail_electric rail_fast ship container cable_car subway aircraft wheelchair scooter drone" speed="3.65" length="1.44" shape="1638.44,579.57 1637.02,579.79"/>
    </edge>
    <edge id=":2650554881_9" function="internal">
        <lane id=":2650554881_9_0" index="0" disallow="tram rail_urban rail rail_electric rail_fast ship container cable_car subway aircraft wheelchair scooter drone" speed="3.65" length="3.23" shape="1637.02,579.79 1636.18,579.48 1635.94,578.62 1636.28,577.22"/>
    </edge>
    <edge id=":2650554881_3" function="internal">
        <lane id=":2650554881_3_0" index="0" disallow="tram rail_urban rail rail_electric rail_fast ship container cable_car subway aircraft wheelchair scooter drone" speed="22.22" length="30.73" shape="1611.75,595.69 1616.94,592.31 1624.30,586.86 1631.52,581.21 1636.28,577.22"/>
    </edge>
    <edge id=":2650554881_4" function="internal">
        <lane id=":2650554881_4_0" index="0" allow="pedestrian motorcycle moped bicycle" speed="6.35" length="2.10" shape="1611.75,595.69 1613.82,595.33"/>
    </edge>
    <edge id=":2650554881_5" function="internal">
        <lane id=":2650554881_5_0" index="0" disallow="tram rail_urban rail rail_electric rail_fast ship container cable_car subway aircraft wheelchair scooter drone" speed="3.68" length="1.60" shape="1611.75,595.69 1613.22,595.51 1613.33,595.55"/>
    </edge>
    <edge id=":2650554881_10" function="internal">
        <lane id=":2650554881_10_0" index="0" allow="pedestrian motorcycle moped bicycle" speed="6.35" length="13.64" shape="1613.82,595.33 1615.98,594.96 1619.45,596.61 1621.16,599.79 1620.09,603.64"/>
    </edge>
    <edge id=":2650554881_11" function="internal">
        <lane id=":2650554881_11_0" index="0" disallow="tram rail_urban rail rail_electric rail_fast ship container cable_car subway aircraft wheelchair scooter drone" speed="3.68" length="3.21" shape="1613.33,595.55 1614.07,595.86 1614.30,596.75 1613.90,598.18"/>
    </edge>
    <edge id=":2650554881_6" function="internal">
        <lane id=":2650554881_6_0" index="0" allow="pedestrian motorcycle moped bicycle" speed="5.64" length="11.99" shape="1617.49,601.77 1619.61,598.29 1619.71,596.54 1617.81,596.50 1613.90,598.18"/>
    </edge>
    <edge id=":2650554881_7" function="internal">
        <lane id=":2650554881_7_0" index="0" allow="pedestrian motorcycle moped bicycle" speed="13.89" length="30.93" shape="1617.49,601.77 1621.14,596.70 1626.60,589.24 1632.20,581.91 1636.28,577.22"/>
    </edge>
    <edge id=":2650554881_8" function="internal">
        <lane id=":2650554881_8_0" index="0" allow="pedestrian motorcycle moped bicycle" speed="3.65" length="4.67" shape="1617.49,601.77 1618.84,601.26 1619.72,601.41 1620.14,602.20 1620.09,603.64"/>
    </edge>
    <edge id=":2650554893_0" function="internal">
        <lane id=":2650554893_0_0" index="0" disallow="tram rail_urban rail rail_electric rail_fast ship container cable_car subway aircraft wheelchair scooter drone" speed="22.22" length="29.52" shape="1654.83,680.55 1649.51,677.71 1641.55,674.05 1633.44,670.77 1627.70,669.10"/>
    </edge>
    <edge id=":2650554893_1" function="internal">
        <lane id=":2650554893_1_0" index="0" allow="pedestrian motorcycle moped bicycle" speed="13.89" length="29.73" shape="1654.83,680.55 1649.99,676.94 1643.16,671.37 1636.40,665.71 1631.78,661.79"/>
    </edge>
    <edge id=":2650554893_2" function="internal">
        <lane id=":2650554893_2_0" index="0" disallow="tram rail_urban rail rail_electric rail_fast ship container cable_car subway aircraft wheelchair scooter drone" speed="3.65" length="1.44" shape="1654.83,680.55 1654.25,679.23"/>
    </edge>
    <edge id=":2650554893_9" function="internal">
        <lane id=":2650554893_9_0" index="0" disallow="tram rail_urban rail rail_electric rail_fast ship container cable_car subway aircraft wheelchair scooter drone" speed="3.65" length="3.23" shape="1654.25,679.23 1654.35,678.34 1655.12,677.88 1656.56,677.86"/>
    </edge>
    <edge id=":2650554893_3" function="internal">
        <lane id=":2650554893_3_0" index="0" allow="pedestrian motorcycle moped bicycle" speed="13.89" length="29.31" shape="1633.84,659.35 1638.41,663.22 1645.05,668.80 1651.77,674.28 1656.56,677.86"/>
    </edge>
    <edge id=":2650554893_4" function="internal">
        <lane id=":2650554893_4_0" index="0" allow="pedestrian motorcycle moped bicycle" speed="6.45" length="15.57" shape="1633.84,659.35 1635.84,662.73 1634.98,666.08 1632.02,668.50 1627.70,669.10"/>
    </edge>
    <edge id=":2650554893_5" function="internal">
        <lane id=":2650554893_5_0" index="0" allow="pedestrian motorcycle moped bicycle" speed="3.65" length="4.67" shape="1633.84,659.35 1634.24,660.73 1634.03,661.60 1633.21,661.96 1631.78,661.79"/>
    </edge>
    <edge id=":2650554893_6" function="internal">
        <lane id=":2650554893_6_0" index="0" allow="pedestrian motorcycle moped bicycle" speed="5.32" length="10.00" shape="1629.19,666.06 1632.73,666.23 1634.33,665.57 1634.02,664.09 1631.78,661.79"/>
    </edge>
    <edge id=":2650554893_7" function="internal">
        <lane id=":2650554893_7_0" index="0" disallow="tram rail_urban rail rail_electric rail_fast ship container cable_car subway aircraft wheelchair scooter drone" speed="22.22" length="29.87" shape="1629.19,666.06 1634.97,667.79 1643.16,671.19 1651.20,674.97 1656.56,677.86"/>
    </edge>
    <edge id=":2650554893_8" function="internal">
        <lane id=":2650554893_8_0" index="0" disallow="tram rail_urban rail rail_electric rail_fast ship container cable_car subway aircraft wheelchair scooter drone" speed="3.72" length="1.52" shape="1629.19,666.06 1629.96,667.38"/>
    </edge>
    <edge id=":2650554893_10" function="internal">
        <lane id=":2650554893_10_0" index="0" disallow="tram rail_urban rail rail_electric rail_fast ship container cable_car subway aircraft wheelchair scooter drone" speed="3.72" length="3.42" shape="1629.96,667.38 1629.96,668.33 1629.21,668.90 1627.70,669.10"/>
    </edge>
    <edge id=":327040335_0" function="internal">
        <lane id=":327040335_0_0" index="0" disallow="tram rail_urban rail rail_electric rail_fast ship container cable_car subway aircraft wheelchair scooter drone" speed="3.65" length="4.67" shape="4499.11,2729.00 4499.79,2730.28 4499.76,2731.17 4499.02,2731.68 4497.59,2731.81"/>
    </edge>
    <edge id=":327040393_0" function="internal">
        <lane id=":327040393_0_0" index="0" disallow="tram rail_urban rail rail_electric rail_fast ship container cable_car subway aircraft wheelchair scooter drone" speed="22.22" length="0.97" shape="1576.03,671.75 1575.18,671.29"/>
    </edge>
    <edge id=":327040393_1" function="internal">
        <lane id=":327040393_1_0" index="0" disallow="tram rail_urban rail rail_electric rail_fast ship container cable_car subway aircraft wheelchair scooter drone" speed="22.22" length="0.30" shape="1575.43,668.59 1575.74,668.56"/>
    </edge>
    <edge id=":3740351251_0" function="internal">
        <lane id=":3740351251_0_0" index="0" allow="pedestrian motorcycle moped bicycle" speed="5.56" length="14.48" shape="1423.66,502.69 1416.89,489.90"/>
    </edge>
    <edge id=":3740351251_1" function="internal">
        <lane id=":3740351251_1_0" index="0" allow="pedestrian motorcycle moped bicycle" speed="5.56" length="14.47" shape="1423.66,502.69 1422.46,499.22 1422.64,495.96 1424.21,492.91 1427.16,490.07"/>
    </edge>
    <edge id=":3740351251_2" function="internal">
        <lane id=":3740351251_2_0" index="0" allow="pedestrian motorcycle moped bicycle" speed="3.65" length="4.67" shape="1423.66,502.69 1423.81,501.26 1424.33,500.53 1425.22,500.51 1426.49,501.20"/>
    </edge>
    <edge id=":3740351251_3" function="internal">
        <lane id=":3740351251_3_0" index="0" allow="pedestrian motorcycle moped bicycle" speed="5.56" length="9.88" shape="1429.08,492.63 1427.01,494.60 1425.88,496.68 1425.71,498.88 1426.49,501.20"/>
    </edge>
    <edge id=":3740351251_4" function="internal">
        <lane id=":3740351251_4_0" index="0" allow="pedestrian motorcycle moped bicycle" speed="5.56" length="14.82" shape="1429.08,492.63 1425.44,494.62 1422.19,494.83 1419.34,493.26 1416.89,489.90"/>
    </edge>
    <edge id=":3740351251_5" function="internal">
        <lane id=":3740351251_5_0" index="0" allow="pedestrian motorcycle moped bicycle" speed="3.65" length="4.67" shape="1429.08,492.63 1427.64,492.71 1426.84,492.31 1426.68,491.43 1427.16,490.07"/>
    </edge>
    <edge id=":3740351251_6" function="internal">
        <lane id=":3740351251_6_0" index="0" allow="pedestrian motorcycle moped bicycle" speed="5.56" length="9.05" shape="1419.72,488.40 1421.21,490.45 1422.95,491.41 1424.94,491.29 1427.16,490.07"/>
    </edge>
    <edge id=":3740351251_7" function="internal">
        <lane id=":3740351251_7_0" index="0" allow="pedestrian motorcycle moped bicycle" speed="5.56" length="14.48" shape="1419.72,488.40 1426.49,501.20"/>
    </edge>
    <edge id=":3740351251_8" function="internal">
        <lane id=":3740351251_8_0" index="0" allow="pedestrian motorcycle moped bicycle" speed="3.65" length="4.67" shape="1419.72,488.40 1419.57,489.84 1419.05,490.56 1418.16,490.59 1416.89,489.90"/>
    </edge>
    <edge id=":4110251309_0" function="internal">
        <lane id=":4110251309_0_0" index="0" allow="pedestrian motorcycle moped bicycle" speed="3.65" length="4.67" shape="728.25,1512.13 726.90,1511.61 726.34,1510.92 726.55,1510.05 727.55,1509.01"/>
    </edge>
    <edge id=":4668329630_0" function="internal">
        <lane id=":4668329630_0_0" index="0" disallow="tram rail_urban rail rail_electric rail_fast ship container cable_car subway aircraft wheelchair scooter drone" speed="3.65" length="4.67" shape="1710.44,240.95 1711.15,239.69 1711.91,239.24 1712.74,239.57 1713.63,240.71"/>
    </edge>
    <edge id=":486622560_0" function="internal">
        <lane id=":486622560_0_0" index="0" disallow="tram rail_urban rail rail_electric rail_fast ship container cable_car subway aircraft wheelchair scooter drone" speed="3.65" length="4.67" shape="-0.52,1.51 -1.40,0.36 -1.51,-0.52 -0.87,-1.15 0.52,-1.51"/>
    </edge>
    <edge id=":486622755_0" function="internal">
        <lane id=":486622755_0_0" index="0" disallow="tram rail_urban rail rail_electric rail_fast ship container cable_car subway aircraft wheelchair scooter drone" speed="22.22" length="0.23" shape="1440.19,619.70 1439.99,619.58"/>
    </edge>
    <edge id=":486622755_1" function="internal">
        <lane id=":486622755_1_0" index="0" disallow="tram rail_urban rail rail_electric rail_fast ship container cable_car subway aircraft wheelchair scooter drone" speed="22.22" length="0.10" shape="1442.66,617.81 1442.70,617.87"/>
    </edge>
    <edge id=":486622801_0" function="internal">
        <lane id=":486622801_0_0" index="0" disallow="tram rail_urban rail rail_electric rail_fast ship container cable_car subway aircraft wheelchair scooter drone" speed="12.77" length="12.25" shape="1539.30,641.75 1539.12,645.49 1539.38,648.23 1540.27,650.64 1541.96,653.34"/>
    </edge>
    <edge id=":486622801_1" function="internal">
        <lane id=":486622801_1_0" index="0" disallow="tram rail_urban rail rail_electric rail_fast ship container cable_car subway aircraft wheelchair scooter drone" speed="18.82" length="12.39" shape="1539.30,641.75 1538.92,645.42 1538.29,647.90 1537.17,650.22 1535.28,653.42"/>
        <lane id=":486622801_1_1" index="1" disallow="tram rail_urban rail rail_electric rail_fast ship container cable_car subway aircraft wheelchair scooter drone" speed="18.61" length="12.39" shape="1536.11,641.51 1535.69,645.08 1534.99,647.47 1533.81,649.70 1531.92,652.81"/>
    </edge>
    <edge id=":486622817_0" function="internal">
        <lane id=":486622817_0_0" index="0" disallow="tram rail_urban rail rail_electric rail_fast ship container cable_car subway aircraft wheelchair scooter drone" speed="17.34" length="12.53" shape="1522.28,610.06 1525.81,611.52 1528.57,612.08 1531.22,612.10 1534.45,611.92"/>
    </edge>
    <edge id=":486622817_1" function="internal">
        <lane id=":486622817_1_0" index="0" disallow="tram rail_urban rail rail_electric rail_fast ship container cable_car subway aircraft wheelchair scooter drone" speed="22.22" length="12.84" shape="1522.28,610.06 1525.68,611.81 1527.87,613.28 1529.77,615.12 1532.32,617.99"/>
        <lane id=":486622817_1_1" index="1" disallow="tram rail_urban rail rail_electric rail_fast ship container cable_car subway aircraft wheelchair scooter drone" speed="18.53" length="12.84" shape="1520.87,612.94 1524.23,614.64 1526.40,616.08 1528.23,617.94 1530.55,620.90"/>
    </edge>
    <edge id=":4911602378_0" function="internal">
        <lane id=":4911602378_0_0" index="0" allow="pedestrian motorcycle moped bicycle" speed="6.33" length="9.04" shape="1724.11,280.52 1722.50,278.60 1720.69,277.71 1718.68,277.86 1716.47,279.05"/>
    </edge>
    <edge id=":4911602378_1" function="internal">
        <lane id=":4911602378_1_0" index="0" disallow="tram rail_urban rail rail_electric rail_fast ship container cable_car subway aircraft wheelchair scooter drone" speed="8.33" length="14.41" shape="1724.11,280.52 1716.56,268.24"/>
    </edge>
    <edge id=":4911602378_2" function="internal">
        <lane id=":4911602378_2_0" index="0" disallow="tram rail_urban rail rail_electric rail_fast ship container cable_car subway aircraft wheelchair scooter drone" speed="3.65" length="1.44" shape="1724.11,280.52 1724.15,279.08"/>
    </edge>
    <edge id=":4911602378_9" function="internal">
        <lane id=":4911602378_9_0" index="0" disallow="tram rail_urban rail rail_electric rail_fast ship container cable_car subway aircraft wheelchair scooter drone" speed="3.65" length="3.23" shape="1724.15,279.08 1724.62,278.32 1725.51,278.24 1726.83,278.84"/>
    </edge>
    <edge id=":4911602378_3" function="internal">
        <lane id=":4911602378_3_0" index="0" disallow="tram rail_urban rail rail_electric rail_fast ship container cable_car subway aircraft wheelchair scooter drone" speed="8.33" length="14.39" shape="1719.29,266.57 1726.83,278.84"/>
    </edge>
    <edge id=":4911602378_4" function="internal">
        <lane id=":4911602378_4_0" index="0" allow="pedestrian motorcycle moped bicycle" speed="6.95" length="3.91" shape="1719.29,266.57 1720.75,270.04 1720.76,270.18"/>
    </edge>
    <edge id=":4911602378_5" function="internal">
        <lane id=":4911602378_5_0" index="0" disallow="tram rail_urban rail rail_electric rail_fast ship container cable_car subway aircraft wheelchair scooter drone" speed="3.65" length="1.44" shape="1719.29,266.57 1719.23,268.01"/>
    </edge>
    <edge id=":4911602378_10" function="internal">
        <lane id=":4911602378_10_0" index="0" allow="pedestrian motorcycle moped bicycle" speed="6.95" length="10.41" shape="1720.76,270.18 1720.77,273.27 1719.34,276.28 1716.47,279.05"/>
    </edge>
    <edge id=":4911602378_11" function="internal">
        <lane id=":4911602378_11_0" index="0" disallow="tram rail_urban rail rail_electric rail_fast ship container cable_car subway aircraft wheelchair scooter drone" speed="3.65" length="3.23" shape="1719.23,268.01 1718.76,268.77 1717.87,268.85 1716.56,268.24"/>
    </edge>
    <edge id=":4911602378_6" function="internal">
        <lane id=":4911602378_6_0" index="0" allow="pedestrian motorcycle moped bicycle" speed="6.87" length="9.48" shape="1714.57,276.48 1716.51,274.62 1717.49,272.63 1717.50,270.50 1716.56,268.24"/>
    </edge>
    <edge id=":4911602378_7" function="internal">
        <lane id=":4911602378_7_0" index="0" allow="pedestrian motorcycle moped bicycle" speed="6.95" length="14.52" shape="1714.57,276.48 1718.11,274.57 1721.34,274.33 1724.24,275.75 1726.83,278.84"/>
    </edge>
    <edge id=":4911602378_8" function="internal">
        <lane id=":4911602378_8_0" index="0" allow="pedestrian motorcycle moped bicycle" speed="3.65" length="4.67" shape="1714.57,276.48 1716.01,276.41 1716.81,276.81 1716.96,277.69 1716.47,279.05"/>
    </edge>
    <edge id=":5169354077_0" function="internal">
        <lane id=":5169354077_0_0" index="0" disallow="tram rail_urban rail rail_electric rail_fast ship container cable_car subway aircraft wheelchair scooter drone" speed="13.09" length="11.91" shape="1485.49,616.86 1487.74,614.10 1488.87,611.75 1489.35,609.27 1489.66,606.07"/>
    </edge>
    <edge id=":5169354077_1" function="internal">
        <lane id=":5169354077_1_0" index="0" disallow="tram rail_urban rail rail_electric rail_fast ship container cable_car subway aircraft wheelchair scooter drone" speed="18.72" length="12.08" shape="1485.49,616.86 1487.96,614.18 1489.80,612.43 1491.92,611.10 1495.25,609.71"/>
        <lane id=":5169354077_1_1" index="1" disallow="tram rail_urban rail rail_electric rail_fast ship container cable_car subway aircraft wheelchair scooter drone" speed="18.39" length="12.08" shape="1487.82,619.05 1490.23,616.50 1492.04,614.87 1494.13,613.65 1497.37,612.33"/>
    </edge>
    <edge id=":5169354078_0" function="internal">
        <lane id=":5169354078_0_0" index="0" disallow="tram rail_urban rail rail_electric rail_fast ship container cable_car subway aircraft wheelchair scooter drone" speed="9.30" length="6.84" shape="1473.67,633.99 1475.46,633.01 1476.73,632.27 1477.67,631.26 1478.44,629.47"/>
    </edge>
    <edge id=":5169354078_1" function="internal">
        <lane id=":5169354078_1_0" index="0" disallow="tram rail_urban rail rail_electric rail_fast ship container cable_car subway aircraft wheelchair scooter drone" speed="22.22" length="6.95" shape="1477.33,636.42 1477.45,634.32 1477.57,632.88 1477.84,631.47 1478.44,629.47"/>
        <lane id=":5169354078_1_1" index="1" disallow="tram rail_urban rail rail_electric rail_fast ship container cable_car subway aircraft wheelchair scooter drone" speed="22.22" length="6.95" shape="1480.49,637.16 1480.59,635.13 1480.68,633.74 1480.92,632.38 1481.48,630.44"/>
    </edge>
    <edge id=":5169354081_0" function="internal">
        <lane id=":5169354081_0_0" index="0" disallow="tram rail_urban rail rail_electric rail_fast ship container cable_car subway aircraft wheelchair scooter drone" speed="10.04" length="6.97" shape="1479.68,649.80 1478.67,648.08 1477.62,647.16 1476.27,646.52 1474.37,645.65"/>
    </edge>
    <edge id=":5169354081_1" function="internal">
        <lane id=":5169354081_1_0" index="0" disallow="tram rail_urban rail rail_electric rail_fast ship container cable_car subway aircraft wheelchair scooter drone" speed="22.22" length="7.10" shape="1479.68,649.80 1478.82,647.85 1478.38,646.45 1478.09,645.00 1477.71,642.89"/>