<?xml version="1.0" encoding="UTF-8"?>

<!-- generated on 2024-09-03 01:36:53 by Eclipse SUMO netconvert Version 1.20.0
<configuration xmlns:xsi="http://www.w3.org/2001/XMLSchema-instance" xsi:noNamespaceSchemaLocation="http://sumo.dlr.de/xsd/netconvertConfiguration.xsd">

    <input>
        <osm-files value="train_files/roundabout/easy/osm_files/map(31).osm"/>
    </input>

    <output>
        <output-file value="train_files/roundabout/easy/outputs/map(31)_dict/map(31)/map(31).net.xml"/>
    </output>

    <projection>
        <proj.utm value="true"/>
    </projection>

    <building_defaults>
        <default.junctions.keep-clear value="false"/>
    </building_defaults>

</configuration>
-->

<net version="1.20" junctionCornerDetail="5" limitTurnSpeed="5.50" xmlns:xsi="http://www.w3.org/2001/XMLSchema-instance" xsi:noNamespaceSchemaLocation="http://sumo.dlr.de/xsd/net_file.xsd">

    <location netOffset="-461340.03,-5379031.68" convBoundary="0.00,0.00,714.28,2798.46" origBoundary="2.475872,48.563216,2.485659,48.588368" projParameter="+proj=utm +zone=31 +ellps=WGS84 +datum=WGS84 +units=m +no_defs"/>

    <type id="highway.cycleway" priority="1" numLanes="1" speed="5.56" allow="bicycle" oneway="0" width="2.00"/>
    <type id="highway.path" priority="1" numLanes="1" speed="5.56" allow="pedestrian bicycle" oneway="0" width="2.00"/>
    <type id="highway.primary" priority="12" numLanes="2" speed="27.78" disallow="tram rail_urban rail rail_electric rail_fast ship container cable_car subway aircraft wheelchair scooter drone" oneway="0"/>
    <type id="highway.residential" priority="3" numLanes="1" speed="13.89" disallow="tram rail_urban rail rail_electric rail_fast ship container cable_car subway aircraft wheelchair scooter drone" oneway="0"/>
    <type id="highway.unclassified" priority="4" numLanes="1" speed="13.89" disallow="tram rail_urban rail rail_electric rail_fast ship container cable_car subway aircraft wheelchair scooter drone" oneway="0"/>

    <edge id=":1965805818_0" function="internal">
        <lane id=":1965805818_0_0" index="0" disallow="tram rail_urban rail rail_electric rail_fast ship container cable_car subway aircraft wheelchair scooter drone" speed="3.65" length="4.67" shape="554.66,377.26 556.11,377.24 556.89,377.67 557.01,378.56 556.48,379.90"/>
    </edge>
    <edge id=":1965805890_0" function="internal">
        <lane id=":1965805890_0_0" index="0" disallow="tram rail_urban rail rail_electric rail_fast ship container cable_car subway aircraft wheelchair scooter drone" speed="13.89" length="13.15" shape="401.13,541.87 398.99,544.64 397.16,547.21 395.78,549.97 394.99,553.28"/>
    </edge>
    <edge id=":1965805890_1" function="internal">
        <lane id=":1965805890_1_0" index="0" disallow="tram rail_urban rail rail_electric rail_fast ship container cable_car subway aircraft wheelchair scooter drone" speed="7.76" length="13.69" shape="401.13,541.87 398.37,544.69 395.49,545.97 392.50,545.70 389.40,543.89"/>
    </edge>
    <edge id=":1965805890_2" function="internal">
        <lane id=":1965805890_2_0" index="0" disallow="tram rail_urban rail rail_electric rail_fast ship container cable_car subway aircraft wheelchair scooter drone" speed="3.65" length="4.67" shape="401.13,541.87 399.77,542.35 398.89,542.18 398.49,541.38 398.57,539.94"/>
    </edge>
    <edge id=":1965805890_3" function="internal">
        <lane id=":1965805890_3_0" index="0" disallow="tram rail_urban rail rail_electric rail_fast ship container cable_car subway aircraft wheelchair scooter drone" speed="6.24" length="8.46" shape="391.34,541.34 393.23,542.43 395.06,542.56 396.84,541.73 398.57,539.94"/>
    </edge>
    <edge id=":1965805890_4" function="internal">
        <lane id=":1965805890_4_0" index="0" disallow="tram rail_urban rail rail_electric rail_fast ship container cable_car subway aircraft wheelchair scooter drone" speed="10.02" length="13.03" shape="391.34,541.34 393.31,543.51 394.57,546.22 395.13,549.48 394.99,553.28"/>
    </edge>
    <edge id=":1965805890_5" function="internal">
        <lane id=":1965805890_5_0" index="0" disallow="tram rail_urban rail rail_electric rail_fast ship container cable_car subway aircraft wheelchair scooter drone" speed="3.65" length="4.68" shape="391.34,541.34 391.81,542.71 391.64,543.59 390.84,543.98 389.40,543.89"/>
    </edge>
    <edge id=":1965805890_6" function="internal">
        <lane id=":1965805890_6_0" index="0" disallow="tram rail_urban rail rail_electric rail_fast ship container cable_car subway aircraft wheelchair scooter drone" speed="8.32" length="8.80" shape="391.93,551.93 392.02,549.39 391.63,547.21 390.75,545.37 389.40,543.89"/>
    </edge>
    <edge id=":1965805890_7" function="internal">
        <lane id=":1965805890_7_0" index="0" disallow="tram rail_urban rail rail_electric rail_fast ship container cable_car subway aircraft wheelchair scooter drone" speed="13.89" length="13.89" shape="391.93,551.93 392.80,548.53 394.35,545.58 396.35,542.81 398.57,539.94"/>
    </edge>
    <edge id=":1965805890_8" function="internal">
        <lane id=":1965805890_8_0" index="0" disallow="tram rail_urban rail rail_electric rail_fast ship container cable_car subway aircraft wheelchair scooter drone" speed="3.70" length="4.88" shape="391.93,551.93 393.20,551.12 394.13,551.08 394.73,551.80 394.99,553.28"/>
    </edge>
    <edge id=":1965805894_0" function="internal">
        <lane id=":1965805894_0_0" index="0" allow="bicycle" speed="4.91" length="5.23" width="2.00" shape="345.66,559.90 345.10,559.37 344.96,558.39 345.25,556.96 345.97,555.09"/>
    </edge>
    <edge id=":1965805894_1" function="internal">
        <lane id=":1965805894_1_0" index="0" allow="bicycle" speed="2.89" length="2.92" width="2.00" shape="345.66,559.90 345.15,559.16 345.10,558.60 345.52,558.23 346.40,558.04"/>
    </edge>
    <edge id=":1965805894_2" function="internal">
        <lane id=":1965805894_2_0" index="0" disallow="tram rail_urban rail rail_electric rail_fast ship container cable_car subway aircraft wheelchair scooter drone" speed="27.78" length="1.01" shape="342.59,554.75 343.60,554.03"/>
        <lane id=":1965805894_2_1" index="1" disallow="tram rail_urban rail rail_electric rail_fast ship container cable_car subway aircraft wheelchair scooter drone" speed="27.78" length="1.01" shape="345.73,555.38 346.52,555.33"/>
    </edge>
    <edge id=":1965805894_4" function="internal">
        <lane id=":1965805894_4_0" index="0" allow="bicycle" speed="3.72" length="2.55" width="2.00" shape="346.32,555.49 346.40,558.04"/>
    </edge>
    <edge id=":1965805895_0" function="internal">
        <lane id=":1965805895_0_0" index="0" allow="bicycle" speed="3.82" length="2.76" width="2.00" shape="352.11,563.59 351.55,563.00 351.06,562.31 350.61,561.89 350.16,562.07"/>
    </edge>
    <edge id=":1965805895_1" function="internal">
        <lane id=":1965805895_1_0" index="0" allow="bicycle" speed="5.56" length="7.26" width="2.00" shape="352.11,563.59 350.36,562.34 349.13,561.51 347.83,560.81 345.85,559.98"/>
    </edge>
    <edge id=":1965805895_2" function="internal">
        <lane id=":1965805895_2_0" index="0" allow="bicycle" speed="2.89" length="2.92" width="2.00" shape="352.11,563.59 351.79,562.75 351.87,562.20 352.36,561.93 353.26,561.95"/>
    </edge>
    <edge id=":1965805895_3" function="internal">
        <lane id=":1965805895_3_0" index="0" allow="bicycle" speed="4.96" length="4.28" width="2.00" shape="352.30,558.21 351.93,559.29 351.97,560.28 352.41,561.17 353.26,561.95"/>
    </edge>
    <edge id=":1965805895_4" function="internal">
        <lane id=":1965805895_4_0" index="0" disallow="tram rail_urban rail rail_electric rail_fast ship container cable_car subway aircraft wheelchair scooter drone" speed="27.78" length="4.04" shape="351.76,557.94 351.21,559.10 350.84,559.90 350.42,560.66 349.68,561.71"/>
        <lane id=":1965805895_4_1" index="1" disallow="tram rail_urban rail rail_electric rail_fast ship container cable_car subway aircraft wheelchair scooter drone" speed="27.78" length="4.04" shape="348.90,556.50 348.43,557.51 348.11,558.22 347.75,558.89 347.12,559.80"/>
    </edge>
    <edge id=":1965805895_6" function="internal">
        <lane id=":1965805895_6_0" index="0" allow="bicycle" speed="5.04" length="4.67" width="2.00" shape="348.37,556.23 347.91,557.25 347.29,558.58 346.57,559.67 345.85,559.98"/>
    </edge>
    <edge id=":1965805895_7" function="internal">
        <lane id=":1965805895_7_0" index="0" allow="bicycle" speed="5.56" length="7.73" width="2.00" shape="346.59,558.12 348.70,559.01 350.08,559.74 351.39,560.62 353.26,561.95"/>
    </edge>
    <edge id=":1965805895_8" function="internal">
        <lane id=":1965805895_8_0" index="0" allow="bicycle" speed="3.52" length="2.76" width="2.00" shape="346.59,558.12 347.38,558.54 347.82,559.02 347.89,559.56 347.60,560.16"/>
    </edge>
    <edge id=":1965805895_9" function="internal">
        <lane id=":1965805895_9_0" index="0" allow="bicycle" speed="2.89" length="2.92" width="2.00" shape="346.59,558.12 347.10,558.86 347.15,559.42 346.73,559.79 345.85,559.98"/>
    </edge>
    <edge id=":229631872_0" function="internal">
        <lane id=":229631872_0_0" index="0" disallow="tram rail_urban rail rail_electric rail_fast ship container cable_car subway aircraft wheelchair scooter drone" speed="3.65" length="4.67" shape="473.18,-0.27 474.17,-1.32 475.02,-1.58 475.74,-1.05 476.33,0.27"/>
    </edge>
    <edge id=":229643186_0" function="internal">
        <lane id=":229643186_0_0" index="0" disallow="tram rail_urban rail rail_electric rail_fast ship container cable_car subway aircraft wheelchair scooter drone" speed="14.65" length="9.12" shape="362.91,512.47 363.83,510.07 363.77,508.24 363.31,506.31 363.03,503.59"/>
        <lane id=":229643186_0_1" index="1" disallow="tram rail_urban rail rail_electric rail_fast ship container cable_car subway aircraft wheelchair scooter drone" speed="15.36" length="10.04" shape="362.91,512.47 364.43,509.90 365.46,508.07 366.04,506.13 366.24,503.21"/>
    </edge>
    <edge id=":229643186_2" function="internal">
        <lane id=":229643186_2_0" index="0" disallow="tram rail_urban rail rail_electric rail_fast ship container cable_car subway aircraft wheelchair scooter drone" speed="14.57" length="9.86" shape="362.91,512.47 364.50,509.73 365.86,507.99 367.59,506.63 370.32,505.00"/>
        <lane id=":229643186_2_1" index="1" disallow="tram rail_urban rail rail_electric rail_fast ship container cable_car subway aircraft wheelchair scooter drone" speed="13.33" length="9.86" shape="365.72,514.02 367.04,511.73 368.17,510.28 369.62,509.15 371.89,507.80"/>
    </edge>
    <edge id=":229643201_0" function="internal">
        <lane id=":229643201_0_0" index="0" disallow="tram rail_urban rail rail_electric rail_fast ship container cable_car subway aircraft wheelchair scooter drone" speed="15.43" length="20.57" shape="371.74,477.30 370.72,483.13 370.11,487.36 370.74,491.29 373.43,496.25"/>
        <lane id=":229643201_0_1" index="1" disallow="tram rail_urban rail rail_electric rail_fast ship container cable_car subway aircraft wheelchair scooter drone" speed="15.99" length="20.57" shape="368.57,476.87 367.49,483.08 366.82,487.69 367.46,492.00 370.27,497.29"/>
    </edge>
    <edge id=":229643201_2" function="internal">
        <lane id=":229643201_2_0" index="0" allow="pedestrian bicycle" speed="7.06" length="2.71" width="2.00" shape="368.57,476.87 367.67,479.42"/>
    </edge>
    <edge id=":229643201_3" function="internal">
        <lane id=":229643201_3_0" index="0" disallow="tram rail_urban rail rail_electric rail_fast ship container cable_car subway aircraft wheelchair scooter drone" speed="3.65" length="1.44" shape="368.57,476.87 367.62,477.95"/>
    </edge>
    <edge id=":229643201_11" function="internal">
        <lane id=":229643201_11_0" index="0" allow="pedestrian bicycle" speed="7.06" length="11.05" width="2.00" shape="367.67,479.42 367.51,479.87 365.34,481.26 362.08,481.05 357.71,479.23"/>
    </edge>
    <edge id=":229643201_12" function="internal">
        <lane id=":229643201_12_0" index="0" disallow="tram rail_urban rail rail_electric rail_fast ship container cable_car subway aircraft wheelchair scooter drone" speed="3.65" length="3.23" shape="367.62,477.95 366.77,478.24 366.03,477.74 365.40,476.44"/>
    </edge>
    <edge id=":229643201_4" function="internal">
        <lane id=":229643201_4_0" index="0" allow="pedestrian bicycle" speed="4.34" length="4.88" width="2.00" shape="358.65,477.46 360.06,478.00 361.12,477.94 361.85,477.28 362.23,476.01"/>
    </edge>
    <edge id=":229643201_5" function="internal">
        <lane id=":229643201_5_0" index="0" allow="pedestrian bicycle" speed="16.67" length="23.15" width="2.00" shape="358.65,477.46 361.54,480.39 364.02,485.15 366.72,491.03 370.27,497.29"/>
    </edge>
    <edge id=":229643201_6" function="internal">
        <lane id=":229643201_6_0" index="0" allow="pedestrian bicycle" speed="2.89" length="2.92" width="2.00" shape="358.65,477.46 359.08,478.26 359.06,478.82 358.61,479.14 357.71,479.23"/>
    </edge>
    <edge id=":229643201_7" function="internal">
        <lane id=":229643201_7_0" index="0" allow="pedestrian bicycle" speed="11.67" length="19.70" width="2.00" shape="363.05,497.45 362.73,490.56 361.74,485.22 360.06,481.44 357.71,479.23"/>
    </edge>
    <edge id=":229643201_8" function="internal">
        <lane id=":229643201_8_0" index="0" disallow="tram rail_urban rail rail_electric rail_fast ship container cable_car subway aircraft wheelchair scooter drone" speed="27.78" length="21.51" shape="363.05,497.45 362.75,491.28 362.15,486.70 361.80,482.14 362.23,476.01"/>
        <lane id=":229643201_8_1" index="1" disallow="tram rail_urban rail rail_electric rail_fast ship container cable_car subway aircraft wheelchair scooter drone" speed="27.78" length="21.51" shape="366.25,497.87 365.94,491.69 365.33,487.12 364.97,482.56 365.40,476.44"/>
    </edge>
    <edge id=":229643201_10" function="internal">
        <lane id=":229643201_10_0" index="0" disallow="tram rail_urban rail rail_electric rail_fast ship container cable_car subway aircraft wheelchair scooter drone" speed="4.84" length="2.49" shape="366.25,497.87 366.51,495.39"/>
    </edge>
    <edge id=":229643201_13" function="internal">
        <lane id=":229643201_13_0" index="0" disallow="tram rail_urban rail rail_electric rail_fast ship container cable_car subway aircraft wheelchair scooter drone" speed="4.84" length="5.40" shape="366.51,495.39 367.27,494.47 368.52,495.11 370.27,497.29"/>
    </edge>
    <edge id=":2511750555_0" function="internal">
        <lane id=":2511750555_0_0" index="0" allow="bicycle" speed="2.89" length="2.92" width="2.00" shape="112.69,2798.38 112.25,2799.17 111.77,2799.46 111.25,2799.25 110.70,2798.54"/>
    </edge>
    <edge id=":254738570_0" function="internal">
        <lane id=":254738570_0_0" index="0" disallow="tram rail_urban rail rail_electric rail_fast ship container cable_car subway aircraft wheelchair scooter drone" speed="3.65" length="4.67" shape="331.82,598.01 330.61,598.80 329.72,598.85 329.14,598.17 328.88,596.75"/>
    </edge>
    <edge id=":255037398_0" function="internal">
        <lane id=":255037398_0_0" index="0" allow="pedestrian bicycle" speed="2.89" length="2.92" width="2.00" shape="288.13,347.71 288.25,346.81 288.59,346.37 289.15,346.38 289.93,346.84"/>
    </edge>
    <edge id=":255222684_0" function="internal">
        <lane id=":255222684_0_0" index="0" disallow="tram rail_urban rail rail_electric rail_fast ship container cable_car subway aircraft wheelchair scooter drone" speed="3.65" length="4.67" shape="346.49,644.98 345.11,644.58 344.49,643.93 344.63,643.05 345.53,641.93"/>
    </edge>
    <edge id=":255222686_0" function="internal">
        <lane id=":255222686_0_0" index="0" disallow="tram rail_urban rail rail_electric rail_fast ship container cable_car subway aircraft wheelchair scooter drone" speed="11.11" length="0.16" shape="402.52,540.03 402.49,540.07 402.46,540.09 402.44,540.12 402.41,540.16"/>
    </edge>
    <edge id=":255222686_1" function="internal">
        <lane id=":255222686_1_0" index="0" disallow="tram rail_urban rail rail_electric rail_fast ship container cable_car subway aircraft wheelchair scooter drone" speed="11.11" length="0.49" shape="399.86,538.23 399.94,538.12 400.01,538.04 400.07,537.96 400.17,537.86"/>
    </edge>
    <edge id=":255222687_0" function="internal">
        <lane id=":255222687_0_0" index="0" disallow="tram rail_urban rail rail_electric rail_fast ship container cable_car subway aircraft wheelchair scooter drone" speed="8.33" length="13.68" shape="415.90,527.40 413.06,529.52 410.56,531.66 408.20,533.96 405.76,536.53"/>
    </edge>
    <edge id=":255222687_1" function="internal">
        <lane id=":255222687_1_0" index="0" disallow="tram rail_urban rail rail_electric rail_fast ship container cable_car subway aircraft wheelchair scooter drone" speed="9.86" length="14.44" shape="415.90,527.40 412.89,528.88 409.61,529.30 406.06,528.67 402.24,526.99"/>
    </edge>
    <edge id=":255222687_2" function="internal">
        <lane id=":255222687_2_0" index="0" disallow="tram rail_urban rail rail_electric rail_fast ship container cable_car subway aircraft wheelchair scooter drone" speed="3.65" length="4.67" shape="415.90,527.40 414.46,527.43 413.67,527.01 413.55,526.12 414.07,524.78"/>
    </edge>
    <edge id=":255222687_3" function="internal">
        <lane id=":255222687_3_0" index="0" disallow="tram rail_urban rail rail_electric rail_fast ship container cable_car subway aircraft wheelchair scooter drone" speed="8.62" length="10.86" shape="403.79,524.20 406.75,525.52 409.45,526.06 411.89,525.81 414.07,524.78"/>
    </edge>
    <edge id=":255222687_4" function="internal">
        <lane id=":255222687_4_0" index="0" disallow="tram rail_urban rail rail_electric rail_fast ship container cable_car subway aircraft wheelchair scooter drone" speed="7.64" length="15.19" shape="403.79,524.20 407.23,526.81 408.70,529.74 408.21,532.98 405.76,536.53"/>
    </edge>
    <edge id=":255222687_5" function="internal">
        <lane id=":255222687_5_0" index="0" disallow="tram rail_urban rail rail_electric rail_fast ship container cable_car subway aircraft wheelchair scooter drone" speed="3.65" length="4.67" shape="403.79,524.20 404.45,525.48 404.41,526.37 403.67,526.88 402.24,526.99"/>
    </edge>
    <edge id=":255222687_6" function="internal">
        <lane id=":255222687_6_0" index="0" disallow="tram rail_urban rail rail_electric rail_fast ship container cable_car subway aircraft wheelchair scooter drone" speed="6.05" length="9.07" shape="403.41,534.36 404.87,532.24 405.16,530.30 404.29,528.55 402.24,526.99"/>
    </edge>
    <edge id=":255222687_7" function="internal">
        <lane id=":255222687_7_0" index="0" disallow="tram rail_urban rail rail_electric rail_fast ship container cable_car subway aircraft wheelchair scooter drone" speed="8.33" length="14.36" shape="403.41,534.36 405.93,531.72 408.48,529.27 411.15,526.97 414.07,524.78"/>
    </edge>
    <edge id=":255222687_8" function="internal">
        <lane id=":255222687_8_0" index="0" disallow="tram rail_urban rail rail_electric rail_fast ship container cable_car subway aircraft wheelchair scooter drone" speed="3.65" length="4.67" shape="403.41,534.36 404.81,534.02 405.67,534.27 405.98,535.11 405.76,536.53"/>
    </edge>
    <edge id=":255268700_0" function="internal">
        <lane id=":255268700_0_0" index="0" disallow="tram rail_urban rail rail_electric rail_fast ship container cable_car subway aircraft wheelchair scooter drone" speed="6.51" length="8.98" shape="395.22,576.50 392.82,575.82 390.78,576.05 389.11,577.19 387.81,579.23"/>
    </edge>
    <edge id=":255268700_1" function="internal">
        <lane id=":255268700_1_0" index="0" disallow="tram rail_urban rail rail_electric rail_fast ship container cable_car subway aircraft wheelchair scooter drone" speed="8.56" length="14.07" shape="395.22,576.50 391.92,574.51 389.83,571.96 388.94,568.85 389.25,565.18"/>
    </edge>
    <edge id=":255268700_2" function="internal">
        <lane id=":255268700_2_0" index="0" disallow="tram rail_urban rail rail_electric rail_fast ship container cable_car subway aircraft wheelchair scooter drone" speed="3.65" length="4.68" shape="395.22,576.50 394.48,575.26 394.47,574.36 395.18,573.82 396.60,573.61"/>
    </edge>
    <edge id=":255268700_3" function="internal">
        <lane id=":255268700_3_0" index="0" disallow="tram rail_urban rail rail_electric rail_fast ship container cable_car subway aircraft wheelchair scooter drone" speed="7.20" length="9.68" shape="392.37,565.89 392.17,568.38 392.81,570.49 394.29,572.24 396.60,573.61"/>
    </edge>
    <edge id=":255268700_4" function="internal">
        <lane id=":255268700_4_0" index="0" disallow="tram rail_urban rail rail_electric rail_fast ship container cable_car subway aircraft wheelchair scooter drone" speed="13.89" length="14.11" shape="392.37,565.89 391.47,569.39 390.44,572.68 389.23,575.90 387.81,579.23"/>
    </edge>
    <edge id=":255268700_5" function="internal">
        <lane id=":255268700_5_0" index="0" disallow="tram rail_urban rail rail_electric rail_fast ship container cable_car subway aircraft wheelchair scooter drone" speed="3.65" length="1.44" shape="392.37,565.89 391.32,566.88"/>
    </edge>
    <edge id=":255268700_9" function="internal">
        <lane id=":255268700_9_0" index="0" disallow="tram rail_urban rail rail_electric rail_fast ship container cable_car subway aircraft wheelchair scooter drone" speed="3.65" length="3.23" shape="391.32,566.88 390.45,567.09 389.76,566.52 389.25,565.18"/>
    </edge>
    <edge id=":255268700_6" function="internal">
        <lane id=":255268700_6_0" index="0" disallow="tram rail_urban rail rail_electric rail_fast ship container cable_car subway aircraft wheelchair scooter drone" speed="13.89" length="13.49" shape="384.89,577.92 386.28,574.69 387.42,571.66 388.38,568.58 389.25,565.18"/>
    </edge>
    <edge id=":255268700_7" function="internal">
        <lane id=":255268700_7_0" index="0" disallow="tram rail_urban rail rail_electric rail_fast ship container cable_car subway aircraft wheelchair scooter drone" speed="8.03" length="3.82" shape="384.89,577.92 386.95,574.69"/>
    </edge>
    <edge id=":255268700_8" function="internal">
        <lane id=":255268700_8_0" index="0" disallow="tram rail_urban rail rail_electric rail_fast ship container cable_car subway aircraft wheelchair scooter drone" speed="3.65" length="1.44" shape="384.89,577.92 386.11,577.15"/>
    </edge>
    <edge id=":255268700_10" function="internal">
        <lane id=":255268700_10_0" index="0" disallow="tram rail_urban rail rail_electric rail_fast ship container cable_car subway aircraft wheelchair scooter drone" speed="8.03" length="10.37" shape="386.95,574.69 389.59,572.90 392.81,572.54 396.60,573.61"/>
    </edge>
    <edge id=":255268700_11" function="internal">
        <lane id=":255268700_11_0" index="0" disallow="tram rail_urban rail rail_electric rail_fast ship container cable_car subway aircraft wheelchair scooter drone" speed="3.65" length="3.23" shape="386.11,577.15 387.01,577.11 387.57,577.80 387.81,579.23"/>
    </edge>
    <edge id=":255268939_0" function="internal">
        <lane id=":255268939_0_0" index="0" disallow="tram rail_urban rail rail_electric rail_fast ship container cable_car subway aircraft wheelchair scooter drone" speed="3.65" length="4.67" shape="410.75,661.28 409.32,661.45 408.50,661.10 408.29,660.23 408.68,658.84"/>
    </edge>
    <edge id=":350114337_0" function="internal">
        <lane id=":350114337_0_0" index="0" disallow="tram rail_urban rail rail_electric rail_fast ship container cable_car subway aircraft wheelchair scooter drone" speed="27.78" length="11.14" shape="399.70,508.53 398.78,511.60 397.98,513.68 397.39,515.79 397.13,518.94"/>
        <lane id=":350114337_0_1" index="1" disallow="tram rail_urban rail rail_electric rail_fast ship container cable_car subway aircraft wheelchair scooter drone" speed="27.78" length="11.14" shape="396.59,507.77 395.62,511.05 394.79,513.27 394.20,515.52 393.93,518.89"/>
    </edge>
    <edge id=":350114337_2" function="internal">
        <lane id=":350114337_2_0" index="0" disallow="tram rail_urban rail rail_electric rail_fast ship container cable_car subway aircraft wheelchair scooter drone" speed="10.87" length="11.72" shape="391.98,508.28 394.27,510.73 395.89,513.33 396.85,516.06 397.13,518.94"/>
        <lane id=":350114337_2_1" index="1" disallow="tram rail_urban rail rail_electric rail_fast ship container cable_car subway aircraft wheelchair scooter drone" speed="10.44" length="11.72" shape="388.47,509.43 390.89,511.90 392.60,514.30 393.62,516.63 393.93,518.89"/>
    </edge>
    <edge id=":370933170_0" function="internal">
        <lane id=":370933170_0_0" index="0" disallow="tram rail_urban rail rail_electric rail_fast ship container cable_car subway aircraft wheelchair scooter drone" speed="3.65" length="4.67" shape="680.51,290.83 680.48,289.39 680.90,288.60 681.79,288.47 683.13,288.99"/>
    </edge>
    <edge id=":370934994_0" function="internal">
        <lane id=":370934994_0_0" index="0" disallow="tram rail_urban rail rail_electric rail_fast ship container cable_car subway aircraft wheelchair scooter drone" speed="6.58" length="8.70" shape="401.59,526.63 399.87,526.14 398.12,526.56 396.35,527.91 394.55,530.17"/>
    </edge>
    <edge id=":370934994_1" function="internal">
        <lane id=":370934994_1_0" index="0" disallow="tram rail_urban rail rail_electric rail_fast ship container cable_car subway aircraft wheelchair scooter drone" speed="6.41" length="7.31" shape="397.13,519.14 397.43,520.57 398.40,521.77 400.04,522.74 402.33,523.47"/>
    </edge>
    <edge id=":370934994_2" function="internal">
        <lane id=":370934994_2_0" index="0" disallow="tram rail_urban rail rail_electric rail_fast ship container cable_car subway aircraft wheelchair scooter drone" speed="14.55" length="11.13" shape="397.13,519.14 397.13,522.59 396.98,525.01 396.27,527.25 394.55,530.17"/>
        <lane id=":370934994_2_1" index="1" disallow="tram rail_urban rail rail_electric rail_fast ship container cable_car subway aircraft wheelchair scooter drone" speed="13.95" length="11.13" shape="393.93,519.09 393.90,522.24 393.70,524.45 392.98,526.49 391.38,529.16"/>
    </edge>
    <edge id=":99980811_0" function="internal">
        <lane id=":99980811_0_0" index="0" disallow="tram rail_urban rail rail_electric rail_fast ship container cable_car subway aircraft wheelchair scooter drone" speed="27.78" length="0.27" shape="420.23,477.77 420.13,477.85"/>
        <lane id=":99980811_0_1" index="1" disallow="tram rail_urban rail rail_electric rail_fast ship container cable_car subway aircraft wheelchair scooter drone" speed="27.78" length="0.27" shape="418.42,475.14 418.10,475.38"/>
    </edge>
    <edge id=":99980811_2" function="internal">
        <lane id=":99980811_2_0" index="0" disallow="tram rail_urban rail rail_electric rail_fast ship container cable_car subway aircraft wheelchair scooter drone" speed="27.78" length="0.84" shape="414.20,470.63 414.38,470.41 414.47,470.23 414.57,470.06 414.78,469.87"/>
        <lane id=":99980811_2_1" index="1" disallow="tram rail_urban rail rail_electric rail_fast ship container cable_car subway aircraft wheelchair scooter drone" speed="27.78" length="0.84" shape="416.24,473.12 416.60,472.50"/>
    </edge>
    <edge id=":99981037_0" function="internal">
        <lane id=":99981037_0_0" index="0" disallow="tram rail_urban rail rail_electric rail_fast ship container cable_car subway aircraft wheelchair scooter drone" speed="7.20" length="6.52" shape="374.50,497.83 375.25,498.94 376.44,500.59 377.72,502.07 378.72,502.70"/>
        <lane id=":99981037_0_1" index="1" disallow="tram rail_urban rail rail_electric rail_fast ship container cable_car subway aircraft wheelchair scooter drone" speed="8.62" length="9.60" shape="371.89,499.69 373.93,502.45 375.77,504.40 377.41,505.55 378.85,505.90"/>
    </edge>
    <edge id=":99981037_2" function="internal">
        <lane id=":99981037_2_0" index="0" disallow="tram rail_urban rail rail_electric rail_fast ship container cable_car subway aircraft wheelchair scooter drone" speed="14.96" length="7.93" shape="370.45,504.93 372.71,503.71 374.37,503.08 376.14,502.82 378.72,502.70"/>
        <lane id=":99981037_2_1" index="1" disallow="tram rail_urban rail rail_electric rail_fast ship container cable_car subway aircraft wheelchair scooter drone" speed="13.58" length="7.93" shape="372.06,507.70 373.91,506.70 375.28,506.20 376.74,505.99 378.85,505.90"/>
    </edge>
    <edge id=":99981038_0" function="internal">
        <lane id=":99981038_0_0" index="0" disallow="tram rail_urban rail rail_electric rail_fast ship container cable_car subway aircraft wheelchair scooter drone" speed="9.53" length="7.18" shape="378.92,502.69 380.77,502.22 381.70,501.14 382.46,499.65 383.78,497.93"/>
        <lane id=":99981038_0_1" index="1" disallow="tram rail_urban rail rail_electric rail_fast ship container cable_car subway aircraft wheelchair scooter drone" speed="9.90" length="7.76" shape="378.92,502.69 381.22,502.61 382.84,502.38 384.26,501.70 385.99,500.25"/>
    </edge>
    <edge id=":99981038_2" function="internal">
        <lane id=":99981038_2_0" index="0" disallow="tram rail_urban rail rail_electric rail_fast ship container cable_car subway aircraft wheelchair scooter drone" speed="14.40" length="8.21" shape="378.92,502.69 381.43,502.68 383.15,502.97 384.78,503.62 387.06,504.74"/>
        <lane id=":99981038_2_1" index="1" disallow="tram rail_urban rail rail_electric rail_fast ship container cable_car subway aircraft wheelchair scooter drone" speed="13.83" length="8.21" shape="379.05,505.89 381.35,505.92 382.91,506.26 384.39,506.95 386.48,508.02"/>
    </edge>