<?xml version="1.0" encoding="UTF-8"?>

<!-- generated on 2024-09-03 01:38:29 by Eclipse SUMO netconvert Version 1.20.0
<configuration xmlns:xsi="http://www.w3.org/2001/XMLSchema-instance" xsi:noNamespaceSchemaLocation="http://sumo.dlr.de/xsd/netconvertConfiguration.xsd">

    <input>
        <osm-files value="train_files/roundabout/hard/osm_files/map(67).osm"/>
    </input>

    <output>
        <output-file value="train_files/roundabout/hard/outputs/map(67)_dict/map(67)/map(67).net.xml"/>
    </output>

    <projection>
        <proj.utm value="true"/>
    </projection>

    <building_defaults>
        <default.junctions.keep-clear value="false"/>
    </building_defaults>

</configuration>
-->

<net version="1.20" junctionCornerDetail="5" limitTurnSpeed="5.50" xmlns:xsi="http://www.w3.org/2001/XMLSchema-instance" xsi:noNamespaceSchemaLocation="http://sumo.dlr.de/xsd/net_file.xsd">

    <location netOffset="-424429.23,-5414221.99" convBoundary="0.00,0.00,1254.19,1161.37" origBoundary="1.969181,48.876423,1.986278,48.886938" projParameter="+proj=utm +zone=31 +ellps=WGS84 +datum=WGS84 +units=m +no_defs"/>

    <type id="highway.primary" priority="12" numLanes="2" speed="27.78" disallow="tram rail_urban rail rail_electric rail_fast ship container cable_car subway aircraft wheelchair scooter drone" oneway="0"/>
    <type id="highway.residential" priority="3" numLanes="1" speed="13.89" disallow="tram rail_urban rail rail_electric rail_fast ship container cable_car subway aircraft wheelchair scooter drone" oneway="0"/>
    <type id="highway.tertiary" priority="10" numLanes="1" speed="22.22" disallow="tram rail_urban rail rail_electric rail_fast ship container cable_car subway aircraft wheelchair scooter drone" oneway="0"/>
    <type id="highway.track" priority="1" numLanes="1" speed="5.56" allow="pedestrian motorcycle moped bicycle" oneway="0"/>

    <edge id=":10703015787_0" function="internal">
        <lane id=":10703015787_0_0" index="0" disallow="tram rail_urban rail rail_electric rail_fast ship container cable_car subway aircraft wheelchair scooter drone" speed="22.49" length="6.96" shape="993.25,844.69 992.98,846.75 992.73,848.17 992.69,849.58 993.06,851.58"/>
    </edge>
    <edge id=":10703015787_1" function="internal">
        <lane id=":10703015787_1_0" index="0" disallow="tram rail_urban rail rail_electric rail_fast ship container cable_car subway aircraft wheelchair scooter drone" speed="11.10" length="7.28" shape="988.93,845.83 990.57,847.23 991.66,848.29 992.42,849.56 993.06,851.58"/>
    </edge>
    <edge id=":10703015824_0" function="internal">
        <lane id=":10703015824_0_0" index="0" disallow="tram rail_urban rail rail_electric rail_fast ship container cable_car subway aircraft wheelchair scooter drone" speed="16.79" length="9.12" shape="963.68,843.16 966.38,843.38 968.26,843.41 970.08,843.07 972.61,842.20"/>
    </edge>
    <edge id=":10703015824_1" function="internal">
        <lane id=":10703015824_1_0" index="0" disallow="tram rail_urban rail rail_electric rail_fast ship container cable_car subway aircraft wheelchair scooter drone" speed="14.69" length="9.29" shape="965.08,847.32 966.90,845.28 968.35,844.06 970.06,843.19 972.61,842.20"/>
    </edge>
    <edge id=":10703015849_0" function="internal">
        <lane id=":10703015849_0_0" index="0" disallow="tram rail_urban rail rail_electric rail_fast ship container cable_car subway aircraft wheelchair scooter drone" speed="14.77" length="7.97" shape="978.62,874.14 976.32,874.44 974.81,875.01 973.41,875.90 971.41,877.18"/>
    </edge>
    <edge id=":10703015849_1" function="internal">
        <lane id=":10703015849_1_0" index="0" disallow="tram rail_urban rail rail_electric rail_fast ship container cable_car subway aircraft wheelchair scooter drone" speed="13.56" length="8.10" shape="978.62,874.14 976.23,874.25 974.58,874.13 972.99,873.64 970.82,872.65"/>
    </edge>
    <edge id=":1237754847_0" function="internal">
        <lane id=":1237754847_0_0" index="0" disallow="tram rail_urban rail rail_electric rail_fast ship container cable_car subway aircraft wheelchair scooter drone" speed="3.91" length="2.42" shape="1211.53,1159.31 1211.47,1159.96 1211.22,1160.45 1210.78,1160.79 1210.15,1160.97"/>
    </edge>
    <edge id=":1237791361_0" function="internal">
        <lane id=":1237791361_0_0" index="0" allow="pedestrian motorcycle moped bicycle" speed="6.34" length="7.27" shape="963.11,865.52 962.28,864.31 960.94,863.58 959.07,863.34 956.69,863.58"/>
    </edge>
    <edge id=":1237791361_1" function="internal">
        <lane id=":1237791361_1_0" index="0" disallow="tram rail_urban rail rail_electric rail_fast ship container cable_car subway aircraft wheelchair scooter drone" speed="23.21" length="9.16" shape="963.11,865.52 962.15,862.98 961.64,861.19 961.42,859.33 961.35,856.62"/>
    </edge>
    <edge id=":1237791361_2" function="internal">
        <lane id=":1237791361_2_0" index="0" allow="pedestrian motorcycle moped bicycle" speed="6.17" length="7.01" shape="956.11,860.43 958.42,859.83 960.06,858.99 961.04,857.92 961.35,856.62"/>
    </edge>
    <edge id=":1237791492_0" function="internal">
        <lane id=":1237791492_0_0" index="0" disallow="tram rail_urban rail rail_electric rail_fast ship container cable_car subway aircraft wheelchair scooter drone" speed="22.22" length="8.43" shape="925.90,838.18 923.40,837.82 921.57,838.33 919.75,838.84 917.26,838.46"/>
        <lane id=":1237791492_0_1" index="1" disallow="tram rail_urban rail rail_electric rail_fast ship container cable_car subway aircraft wheelchair scooter drone" speed="22.22" length="8.43" shape="925.90,838.18 918.36,835.46"/>
    </edge>
    <edge id=":1237791492_2" function="internal">
        <lane id=":1237791492_2_0" index="0" disallow="tram rail_urban rail rail_electric rail_fast ship container cable_car subway aircraft wheelchair scooter drone" speed="22.22" length="8.82" shape="920.55,829.45 922.70,830.76 923.77,832.33 924.83,833.89 926.98,835.20"/>
    </edge>
    <edge id=":1237791648_0" function="internal">
        <lane id=":1237791648_0_0" index="0" disallow="tram rail_urban rail rail_electric rail_fast ship container cable_car subway aircraft wheelchair scooter drone" speed="8.14" length="5.13" shape="961.34,856.42 961.03,855.10 960.26,854.43 959.19,853.88 957.98,852.91"/>
    </edge>
    <edge id=":1237791648_1" function="internal">
        <lane id=":1237791648_1_0" index="0" disallow="tram rail_urban rail rail_electric rail_fast ship container cable_car subway aircraft wheelchair scooter drone" speed="15.57" length="4.76" shape="961.34,856.42 961.38,855.02 961.56,854.07 961.90,853.15 962.41,851.83"/>
    </edge>
    <edge id=":1237848859_0" function="internal">
        <lane id=":1237848859_0_0" index="0" disallow="tram rail_urban rail rail_electric rail_fast ship container cable_car subway aircraft wheelchair scooter drone" speed="3.65" length="4.67" shape="626.01,1.30 625.50,-0.05 625.64,-0.93 626.44,-1.35 627.88,-1.30"/>
    </edge>
    <edge id=":241939655_0" function="internal">
        <lane id=":241939655_0_0" index="0" disallow="tram rail_urban rail rail_electric rail_fast ship container cable_car subway aircraft wheelchair scooter drone" speed="3.65" length="4.67" shape="223.78,580.59 223.13,579.30 223.17,578.41 223.91,577.91 225.35,577.80"/>
    </edge>
    <edge id=":241939760_0" function="internal">
        <lane id=":241939760_0_0" index="0" disallow="tram rail_urban rail rail_electric rail_fast ship container cable_car subway aircraft wheelchair scooter drone" speed="22.89" length="7.28" shape="993.61,861.99 993.43,864.11 993.62,865.57 994.03,867.03 994.53,869.14"/>
    </edge>
    <edge id=":241939760_1" function="internal">
        <lane id=":241939760_1_0" index="0" disallow="tram rail_urban rail rail_electric rail_fast ship container cable_car subway aircraft wheelchair scooter drone" speed="12.05" length="7.45" shape="993.61,861.99 993.17,864.13 992.58,865.52 991.66,866.76 990.21,868.42"/>
    </edge>
    <edge id=":2574009860_0" function="internal">
        <lane id=":2574009860_0_0" index="0" disallow="tram rail_urban rail rail_electric rail_fast ship container cable_car subway aircraft wheelchair scooter drone" speed="13.08" length="8.40" shape="976.47,841.43 978.93,841.07 980.60,840.64 982.11,839.82 984.08,838.33"/>
    </edge>
    <edge id=":2574009860_1" function="internal">
        <lane id=":2574009860_1_0" index="0" disallow="tram rail_urban rail rail_electric rail_fast ship container cable_car subway aircraft wheelchair scooter drone" speed="12.97" length="8.54" shape="976.47,841.43 978.96,841.20 980.69,841.35 982.36,841.93 984.67,842.96"/>
    </edge>
    <edge id=":599709486_0" function="internal">
        <lane id=":599709486_0_0" index="0" disallow="tram rail_urban rail rail_electric rail_fast ship container cable_car subway aircraft wheelchair scooter drone" speed="3.65" length="4.67" shape="1253.47,915.04 1254.90,915.21 1255.62,915.74 1255.62,916.64 1254.92,917.90"/>
    </edge>
    <edge id=":599709559_0" function="internal">
        <lane id=":599709559_0_0" index="0" disallow="tram rail_urban rail rail_electric rail_fast ship container cable_car subway aircraft wheelchair scooter drone" speed="22.22" length="14.58" shape="978.93,804.41 972.32,791.41"/>
    </edge>
    <edge id=":599709559_1" function="internal">
        <lane id=":599709559_1_0" index="0" disallow="tram rail_urban rail rail_electric rail_fast ship container cable_car subway aircraft wheelchair scooter drone" speed="7.93" length="4.24" shape="978.93,804.41 977.59,800.68 977.60,800.40"/>
    </edge>
    <edge id=":599709559_2" function="internal">
        <lane id=":599709559_2_0" index="0" disallow="tram rail_urban rail rail_electric rail_fast ship container cable_car subway aircraft wheelchair scooter drone" speed="3.65" length="1.44" shape="978.93,804.41 979.07,802.97"/>
    </edge>
    <edge id=":599709559_9" function="internal">
        <lane id=":599709559_9_0" index="0" disallow="tram rail_urban rail rail_electric rail_fast ship container cable_car subway aircraft wheelchair scooter drone" speed="7.93" length="10.11" shape="977.60,800.40 977.79,797.47 979.53,794.76 982.83,792.56"/>
    </edge>
    <edge id=":599709559_10" function="internal">
        <lane id=":599709559_10_0" index="0" disallow="tram rail_urban rail rail_electric rail_fast ship container cable_car subway aircraft wheelchair scooter drone" speed="3.65" length="3.23" shape="979.07,802.97 979.59,802.24 980.49,802.22 981.76,802.90"/>
    </edge>
    <edge id=":599709559_3" function="internal">
        <lane id=":599709559_3_0" index="0" disallow="tram rail_urban rail rail_electric rail_fast ship container cable_car subway aircraft wheelchair scooter drone" speed="6.42" length="9.04" shape="984.21,795.45 982.14,796.83 981.04,798.54 980.91,800.56 981.76,802.90"/>
    </edge>
    <edge id=":599709559_4" function="internal">
        <lane id=":599709559_4_0" index="0" disallow="tram rail_urban rail rail_electric rail_fast ship container cable_car subway aircraft wheelchair scooter drone" speed="8.04" length="14.30" shape="984.21,795.45 980.44,796.64 977.21,796.37 974.50,794.62 972.32,791.41"/>
    </edge>
    <edge id=":599709559_5" function="internal">
        <lane id=":599709559_5_0" index="0" disallow="tram rail_urban rail rail_electric rail_fast ship container cable_car subway aircraft wheelchair scooter drone" speed="3.65" length="4.67" shape="984.21,795.45 982.78,795.25 982.07,794.70 982.09,793.80 982.83,792.56"/>
    </edge>
    <edge id=":599709559_6" function="internal">
        <lane id=":599709559_6_0" index="0" disallow="tram rail_urban rail rail_electric rail_fast ship container cable_car subway aircraft wheelchair scooter drone" speed="6.56" length="9.16" shape="975.20,790.01 976.59,792.06 978.33,793.17 980.40,793.33 982.83,792.56"/>
    </edge>
    <edge id=":599709559_7" function="internal">
        <lane id=":599709559_7_0" index="0" disallow="tram rail_urban rail rail_electric rail_fast ship container cable_car subway aircraft wheelchair scooter drone" speed="22.22" length="14.46" shape="975.20,790.01 981.76,802.90"/>
    </edge>
    <edge id=":599709559_8" function="internal">
        <lane id=":599709559_8_0" index="0" disallow="tram rail_urban rail rail_electric rail_fast ship container cable_car subway aircraft wheelchair scooter drone" speed="3.65" length="1.44" shape="975.20,790.01 975.00,791.44"/>
    </edge>
    <edge id=":599709559_11" function="internal">
        <lane id=":599709559_11_0" index="0" disallow="tram rail_urban rail rail_electric rail_fast ship container cable_car subway aircraft wheelchair scooter drone" speed="3.65" length="3.23" shape="975.00,791.44 974.46,792.15 973.57,792.14 972.32,791.41"/>
    </edge>
    <edge id=":599709560_0" function="internal">
        <lane id=":599709560_0_0" index="0" disallow="tram rail_urban rail rail_electric rail_fast ship container cable_car subway aircraft wheelchair scooter drone" speed="3.65" length="4.67" shape="1147.34,713.88 1148.77,714.09 1149.47,714.64 1149.45,715.53 1148.72,716.77"/>
    </edge>
    <edge id=":599709621_0" function="internal">
        <lane id=":599709621_0_0" index="0" disallow="tram rail_urban rail rail_electric rail_fast ship container cable_car subway aircraft wheelchair scooter drone" speed="22.22" length="0.81" shape="986.59,818.47 986.44,818.28 986.32,818.16 986.21,818.04 986.08,817.84"/>
    </edge>
    <edge id=":599709621_1" function="internal">
        <lane id=":599709621_1_0" index="0" disallow="tram rail_urban rail rail_electric rail_fast ship container cable_car subway aircraft wheelchair scooter drone" speed="22.22" length="1.13" shape="988.91,816.34 989.05,816.64 989.13,816.86 989.19,817.08 989.31,817.40"/>
    </edge>
    <edge id=":86102107_0" function="internal">
        <lane id=":86102107_0_0" index="0" disallow="tram rail_urban rail rail_electric rail_fast ship container cable_car subway aircraft wheelchair scooter drone" speed="13.19" length="5.82" shape="966.87,870.08 965.55,868.95 964.63,868.16 963.90,867.24 963.18,865.71"/>
    </edge>
    <edge id=":86102107_1" function="internal">
        <lane id=":86102107_1_0" index="0" disallow="tram rail_urban rail rail_electric rail_fast ship container cable_car subway aircraft wheelchair scooter drone" speed="11.46" length="5.73" shape="962.56,871.25 962.97,869.58 963.40,868.42 963.57,867.28 963.18,865.71"/>
    </edge>
    <edge id=":86102109_0" function="internal">
        <lane id=":86102109_0_0" index="0" disallow="tram rail_urban rail rail_electric rail_fast ship container cable_car subway aircraft wheelchair scooter drone" speed="11.72" length="7.04" shape="985.20,876.63 983.41,875.53 982.16,874.69 980.83,874.19 978.82,874.12"/>
    </edge>
    <edge id=":86102109_1" function="internal">
        <lane id=":86102109_1_0" index="0" disallow="tram rail_urban rail rail_electric rail_fast ship container cable_car subway aircraft wheelchair scooter drone" speed="17.36" length="7.11" shape="985.57,872.18 983.68,873.11 982.33,873.65 980.91,873.94 978.82,874.12"/>
    </edge>
    <edge id=":86102110_0" function="internal">
        <lane id=":86102110_0_0" index="0" disallow="tram rail_urban rail rail_electric rail_fast ship container cable_car subway aircraft wheelchair scooter drone" speed="7.57" length="8.50" shape="1000.37,857.23 997.60,858.15 995.55,859.22 994.24,860.44 993.64,861.80"/>
    </edge>
    <edge id=":86102110_1" function="internal">
        <lane id=":86102110_1_0" index="0" disallow="tram rail_urban rail rail_electric rail_fast ship container cable_car subway aircraft wheelchair scooter drone" speed="6.05" length="7.75" shape="993.11,851.77 993.88,853.36 995.21,854.29 997.09,854.55 999.53,854.14"/>
    </edge>
    <edge id=":86102110_2" function="internal">
        <lane id=":86102110_2_0" index="0" disallow="tram rail_urban rail rail_electric rail_fast ship container cable_car subway aircraft wheelchair scooter drone" speed="19.59" length="10.17" shape="993.11,851.77 993.83,854.69 994.14,856.75 994.07,858.83 993.64,861.80"/>
    </edge>
    <edge id=":86102300_0" function="internal">
        <lane id=":86102300_0_0" index="0" disallow="tram rail_urban rail rail_electric rail_fast ship container cable_car subway aircraft wheelchair scooter drone" speed="3.66" length="4.65" shape="999.82,936.18 1000.50,937.44 1000.48,938.33 999.76,938.85 998.33,939.00"/>
    </edge>
    <edge id=":924418698_0" function="internal">
        <lane id=":924418698_0_0" index="0" allow="pedestrian motorcycle moped bicycle" speed="3.65" length="4.67" shape="-0.50,875.55 -1.39,874.41 -1.52,873.53 -0.89,872.89 0.50,872.51"/>
    </edge>

    <edge id="-115323329#0" from="599709559" to="1237848859" priority="10" type="highway.tertiary" shape="976.90,797.17 973.13,789.40 968.12,779.07 960.63,760.10 937.87,703.50 930.41,684.94 917.15,650.64 908.75,628.95 905.13,620.17 900.30,608.49 892.72,590.14 890.56,584.92 868.38,527.63 848.06,466.25 839.28,435.32 806.71,320.63 804.89,314.25 796.95,285.56 789.47,258.54 767.81,180.31 765.58,172.59 755.04,144.60 748.00,131.08 742.25,121.06 738.30,114.20 729.29,104.11 728.05,102.73 725.48,99.86 721.12,94.98 717.31,91.08 710.58,84.17 702.76,77.44 687.25,62.55 670.50,46.49 640.18,15.32 629.29,1.68 626.95,0.00">
        <lane id="-115323329#0_0" index="0" disallow="tram rail_urban rail rail_electric rail_fast ship container cable_car subway aircraft wheelchair scooter drone" speed="22.22" length="876.67" shape="972.32,791.41 971.69,790.10 966.65,779.71 959.14,760.69 936.39,704.10 928.92,685.52 915.65,651.22 907.27,629.54 903.65,620.78 898.82,609.10 891.24,590.75 889.07,585.51 866.87,528.17 846.53,466.72 837.74,435.76 805.17,321.07 803.35,314.69 795.41,285.99 787.93,258.96 766.27,180.74 764.06,173.10 753.57,145.26 746.59,131.85 740.86,121.86 737.00,115.14 728.10,105.18 726.85,103.80 724.28,100.93 719.95,96.08 716.17,92.19 709.48,85.34 701.68,78.63 686.14,63.71 669.37,47.62 638.98,16.38 628.18,2.85 626.01,1.30"/>
    </edge>
    <edge id="-115323329#1" from="599709621" to="599709559" priority="10" type="highway.tertiary">
        <lane id="-115323329#1_0" index="0" disallow="tram rail_urban rail rail_electric rail_fast ship container cable_car subway aircraft wheelchair scooter drone" speed="22.22" length="15.22" shape="986.08,817.84 978.93,804.41"/>
    </edge>
    <edge id="-115622107" from="1237791492" to="241939655" priority="12" type="highway.primary" shape="922.74,835.36 902.58,827.99 854.96,810.31 785.50,786.22 714.67,762.13 643.76,738.39 434.90,667.43 381.02,648.78 345.43,635.32 319.42,625.25 288.78,612.30 264.55,601.04 244.57,590.49 224.57,579.19">
        <lane id="-115622107_0" index="0" disallow="tram rail_urban rail rail_electric rail_fast ship container cable_car subway aircraft wheelchair scooter drone" speed="22.22" length="740.91" shape="917.26,838.46 900.92,832.49 853.34,814.83 783.94,790.76 713.14,766.68 642.22,742.94 433.34,671.97 379.39,653.30 343.72,639.80 317.62,629.70 286.83,616.69 262.42,605.35 242.27,594.70 222.21,583.37"/>
        <lane id="-115622107_1" index="1" disallow="tram rail_urban rail rail_electric rail_fast ship container cable_car subway aircraft wheelchair scooter drone" speed="22.22" length="740.91" shape="918.36,835.46 902.03,829.49 854.42,811.82 784.98,787.73 714.16,763.65 643.24,739.91 434.38,668.95 380.48,650.29 344.86,636.81 318.82,626.74 288.13,613.77 263.84,602.48 243.80,591.89 223.78,580.59"/>
        <param key="ref" value="D 30"/>
    </edge>
    <edge id="-403685574" from="1237791361" to="924418698" priority="1" type="highway.track" shape="961.61,861.05 954.17,862.41 940.79,868.40 912.47,850.67 874.27,831.24 838.09,817.17 699.51,768.22 637.36,748.05 628.16,745.81 618.76,744.89 609.71,747.21 598.69,752.91 475.73,803.25 241.46,899.17 215.39,908.77 180.73,917.34 152.94,919.75 133.70,917.74 0.00,874.03">
        <lane id="-403685574_0" index="0" allow="pedestrian motorcycle moped bicycle" speed="5.56" length="1023.33" shape="956.69,863.58 954.65,863.95 940.67,870.21 911.68,852.06 873.62,832.70 837.53,818.67 699.00,769.73 636.92,749.59 627.89,747.39 618.88,746.51 610.28,748.71 599.36,754.36 476.34,804.73 242.04,900.66 215.86,910.30 181.00,918.93 152.93,921.36 133.36,919.32 -0.50,875.55"/>
    </edge>
    <edge id="-47005481" from="599709486" to="86102110" priority="3" type="highway.residential" shape="1254.19,916.47 1101.28,994.39 1098.69,994.68 1096.12,993.77 1094.44,992.20 1048.63,917.55 1014.93,863.56 1011.57,859.03 1006.96,856.29 1001.20,855.34 994.16,857.26">
        <lane id="-47005481_0" index="0" disallow="tram rail_urban rail rail_electric rail_fast ship container cable_car subway aircraft wheelchair scooter drone" speed="13.89" length="348.96" shape="1254.92,917.90 1101.74,995.95 1098.50,996.31 1095.27,995.17 1093.19,993.23 1047.27,918.39 1013.61,864.46 1010.48,860.24 1006.40,857.82 1001.28,856.98 1000.37,857.23"/>
        <param key="ref" value="C 3"/>
    </edge>
    <edge id="-47005496" from="599709560" to="599709559" priority="3" type="highway.residential" shape="1148.03,715.33 1134.34,721.86 979.88,795.75 976.90,797.17">
        <lane id="-47005496_0" index="0" disallow="tram rail_urban rail rail_electric rail_fast ship container cable_car subway aircraft wheelchair scooter drone" speed="13.89" length="182.36" shape="1148.72,716.77 1135.03,723.30 984.21,795.45"/>
    </edge>
    <edge id="10276733" from="10703015849" to="86102300" priority="10" type="highway.tertiary" spreadType="center" shape="978.06,874.17 974.13,875.57 970.91,877.47 967.22,881.06 963.50,885.95 961.54,888.79 960.30,891.74 959.61,894.26 958.65,898.57 958.61,902.74 959.25,906.11 960.69,909.90 963.13,913.26 966.28,916.77 969.80,919.66 979.58,925.29 984.38,928.37 999.97,936.25">
        <lane id="10276733_0" index="0" disallow="tram rail_urban rail rail_electric rail_fast ship container cable_car subway aircraft wheelchair scooter drone" speed="22.22" length="84.91" shape="971.41,877.18 970.91,877.47 967.22,881.06 963.50,885.95 961.54,888.79 960.30,891.74 959.61,894.26 958.65,898.57 958.61,902.74 959.25,906.11 960.69,909.90 963.13,913.26 966.28,916.77 969.80,919.66 979.58,925.29 984.38,928.37 999.82,936.18"/>
    </edge>
    <edge id="10276734" from="86102300" to="86102107" priority="10" type="highway.tertiary" spreadType="center" shape="998.47,939.07 981.67,929.86 975.96,927.16 968.79,923.17 963.95,919.72 960.36,916.53 957.47,912.52 955.04,907.60 953.85,903.29 953.64,898.72 953.98,894.52 954.73,891.14 956.29,886.98 958.80,881.91 961.12,876.97 962.48,871.84 962.92,868.66 963.12,865.31">
        <lane id="10276734_0" index="0" disallow="tram rail_urban rail rail_electric rail_fast ship container cable_car subway aircraft wheelchair scooter drone" speed="22.22" length="92.89" shape="998.33,939.00 981.67,929.86 975.96,927.16 968.79,923.17 963.95,919.72 960.36,916.53 957.47,912.52 955.04,907.60 953.85,903.29 953.64,898.72 953.98,894.52 954.73,891.14 956.29,886.98 958.80,881.91 961.12,876.97 962.48,871.84 962.56,871.25"/>
    </edge>
    <edge id="107743395" from="1237754847" to="86102109" priority="12" type="highway.primary" spreadType="center" shape="1211.60,1160.77 1207.31,1161.37 1202.69,1157.50 1192.12,1148.65 1172.71,1130.08 1160.65,1116.71 1138.56,1087.39 1079.78,990.84 1063.18,967.28 1040.59,938.19 1001.44,891.23 996.34,885.67 990.93,880.26 987.04,877.60 983.62,875.79 979.54,874.08">
        <lane id="107743395_0" index="0" disallow="tram rail_urban rail rail_electric rail_fast ship container cable_car subway aircraft wheelchair scooter drone" speed="22.22" length="366.07" shape="1210.15,1160.97 1207.31,1161.37 1202.69,1157.50 1192.12,1148.65 1172.71,1130.08 1160.65,1116.71 1138.56,1087.39 1079.78,990.84 1063.18,967.28 1040.59,938.19 1001.44,891.23 996.34,885.67 990.93,880.26 987.04,877.60 985.20,876.63"/>
        <param key="ref" value="D 30"/>
    </edge>
    <edge id="107743406" from="241939760" to="1237754847" priority="12" type="highway.primary" spreadType="center" shape="993.77,861.38 994.23,867.51 994.86,870.98 996.24,874.78 998.26,878.28 1002.36,883.72 1005.86,887.99 1044.43,933.95 1067.64,964.03 1084.99,988.91 1117.45,1041.22 1143.18,1083.62 1149.80,1092.85 1166.62,1114.78 1175.50,1124.96 1184.96,1134.24 1195.41,1143.81 1211.42,1157.16 1211.60,1160.77">
        <lane id="107743406_0" index="0" disallow="tram rail_urban rail rail_electric rail_fast ship container cable_car subway aircraft wheelchair scooter drone" speed="22.22" length="364.70" shape="994.53,869.14 994.86,870.98 996.24,874.78 998.26,878.28 1002.36,883.72 1005.86,887.99 1044.43,933.95 1067.64,964.03 1084.99,988.91 1117.45,1041.22 1143.18,1083.62 1149.80,1092.85 1166.62,1114.78 1175.50,1124.96 1184.96,1134.24 1195.41,1143.81 1211.42,1157.16 1211.53,1159.31"/>
        <param key="ref" value="D 30"/>
    </edge>
    <edge id="107747738" from="1237791492" to="10703015824" priority="12" type="highway.primary" spreadType="center" shape="923.13,833.81 938.24,839.28 943.64,840.42 951.46,841.85 958.25,842.74 963.67,843.16 967.11,843.11 970.99,842.82">
        <lane id="107747738_0" index="0" disallow="tram rail_urban rail rail_electric rail_fast ship container cable_car subway aircraft wheelchair scooter drone" speed="22.22" length="37.74" shape="926.98,835.20 938.24,839.28 943.64,840.42 951.46,841.85 958.25,842.74 963.68,843.16"/>
        <param key="ref" value="D 30"/>
    </edge>
    <edge id="107747751" from="1237791648" to="1237791492" priority="12" type="highway.primary" spreadType="center" shape="961.29,857.08 959.84,854.97 957.74,852.64 955.79,850.86 952.48,848.46 948.66,846.29 922.11,836.83">
        <lane id="107747751_0" index="0" disallow="tram rail_urban rail rail_electric rail_fast ship container cable_car subway aircraft wheelchair scooter drone" speed="22.22" length="35.65" shape="957.98,852.91 957.74,852.64 955.79,850.86 952.48,848.46 948.66,846.29 925.90,838.18"/>
        <param key="ref" value="D 30"/>
    </edge>
    <edge id="115323329#0" from="1237848859" to="599709559" priority="10" type="highway.tertiary" shape="626.95,0.00 629.29,1.68 640.18,15.32 670.50,46.49 687.25,62.55 702.76,77.44 710.58,84.17 717.31,91.08 721.12,94.98 725.48,99.86 728.05,102.73 729.29,104.11 738.30,114.20 742.25,121.06 748.00,131.08 755.04,144.60 765.58,172.59 767.81,180.31 789.47,258.54 796.95,285.56 804.89,314.25 806.71,320.63 839.28,435.32 848.06,466.25 868.38,527.63 890.56,584.92 892.72,590.14 900.30,608.49 905.13,620.17 908.75,628.95 917.15,650.64 930.41,684.94 937.87,703.50 960.63,760.10 968.12,779.07 973.13,789.40 976.90,797.17">
        <lane id="115323329#0_0" index="0" disallow="tram rail_urban rail rail_electric rail_fast ship container cable_car subway aircraft wheelchair scooter drone" speed="22.22" length="878.27" shape="627.88,-1.30 630.40,0.51 641.38,14.26 671.63,45.35 688.35,61.40 703.83,76.26 711.67,83.01 718.46,89.96 722.29,93.89 726.67,98.80 729.24,101.66 730.48,103.05 739.61,113.26 743.63,120.26 749.40,130.31 756.50,143.95 767.10,172.09 769.35,179.88 791.01,258.11 798.49,285.14 806.43,313.82 808.25,320.20 840.82,434.89 849.59,465.78 869.89,527.08 892.04,584.32 894.20,589.53 901.78,607.88 906.61,619.56 910.24,628.35 918.64,650.06 931.90,684.35 939.36,702.91 962.11,759.51 969.58,778.43 974.56,788.70 975.20,790.01"/>
    </edge>
    <edge id="115323329#1" from="599709559" to="599709621" priority="10" type="highway.tertiary">
        <lane id="115323329#1_0" index="0" disallow="tram rail_urban rail rail_electric rail_fast ship container cable_car subway aircraft wheelchair scooter drone" speed="22.22" length="15.22" shape="981.76,802.90 988.91,816.34"/>
    </edge>
    <edge id="115622107" from="241939655" to="1237791492" priority="12" type="highway.primary" shape="224.57,579.19 244.57,590.49 264.55,601.04 288.78,612.30 319.42,625.25 345.43,635.32 381.02,648.78 434.90,667.43 643.76,738.39 714.67,762.13 785.50,786.22 854.96,810.31 902.58,827.99 922.74,835.36">
        <lane id="115622107_0" index="0" disallow="tram rail_urban rail rail_electric rail_fast ship container cable_car subway aircraft wheelchair scooter drone" speed="22.22" length="739.86" shape="226.93,575.01 246.87,586.27 266.69,596.74 290.72,607.91 321.22,620.80 347.15,630.84 382.66,644.27 436.46,662.89 645.29,733.84 716.21,757.58 787.06,781.68 856.58,805.80 904.24,823.48 920.55,829.45"/>
        <lane id="115622107_1" index="1" disallow="tram rail_urban rail rail_electric rail_fast ship container cable_car subway aircraft wheelchair scooter drone" speed="22.22" length="739.86" shape="225.35,577.80 245.34,589.08 265.26,599.61 289.43,610.84 320.02,623.77 346.01,633.83 381.57,647.28 435.42,665.92 644.27,736.88 715.18,760.62 786.02,784.71 855.50,808.81 903.14,826.49 919.45,832.45"/>
        <param key="ref" value="D 30"/>
    </edge>
    <edge id="1157779345" from="1237791648" to="10703015824" priority="12" type="highway.primary" spreadType="center" shape="961.29,857.08 961.42,855.64 961.67,854.23 962.04,852.83 962.55,851.48 963.16,850.17 963.88,848.93 964.72,847.75 965.65,846.64 966.68,845.63 967.79,844.70 969.34,843.67 970.99,842.82">
        <lane id="1157779345_0" index="0" disallow="tram rail_urban rail rail_electric rail_fast ship container cable_car subway aircraft wheelchair scooter drone" speed="27.78" length="5.27" shape="962.41,851.83 962.55,851.48 963.16,850.17 963.88,848.93 964.72,847.75 965.08,847.32"/>
    </edge>
    <edge id="1157779346" from="241939760" to="86102109" priority="12" type="highway.primary" spreadType="center" shape="993.77,861.38 992.97,863.62 991.80,866.16 990.73,867.81 989.66,869.06 988.47,870.20 987.16,871.21 985.77,872.08 984.29,872.81 982.75,873.39 981.16,873.81 979.54,874.08">