<?xml version="1.0" encoding="UTF-8"?>

<!-- generated on 2024-09-03 01:38:13.741388 by randomTrips.py UNKNOWN
<configuration>
    <net-file value="train_files/intersection/middle/outputs/map(86)_dict/map(86)/map(86).net.xml"/>
    <output-trip-file value="train_files/intersection/middle/outputs/map(86)_dict/map(86)/map(86).trips.xml"/>
    <fringe-factor value="max"/>
    <validate value="True"/>
    <period value="1.2"/>
</configuration>
-->

<!-- generated on 2024-09-03 01:38:13 by Eclipse SUMO duarouter Version 1.20.0
<configuration xmlns:xsi="http://www.w3.org/2001/XMLSchema-instance" xsi:noNamespaceSchemaLocation="http://sumo.dlr.de/xsd/duarouterConfiguration.xsd">

    <input>
        <net-file value="train_files/intersection/middle/outputs/map(86)_dict/map(86)/map(86).net.xml"/>
        <route-files value="train_files/intersection/middle/outputs/map(86)_dict/map(86)/map(86).trips.xml"/>
    </input>

    <output>
        <output-file value="train_files/intersection/middle/outputs/map(86)_dict/map(86)/map(86).trips.xml.tmp"/>
        <alternatives-output value="NUL"/>
        <write-trips value="true"/>
    </output>

    <time>
        <begin value="0"/>
        <end value="3600"/>
    </time>

    <report>
        <no-warnings value="true"/>
        <ignore-errors value="true"/>
        <no-step-log value="true"/>
    </report>

</configuration>
-->

<routes xmlns:xsi="http://www.w3.org/2001/XMLSchema-instance" xsi:noNamespaceSchemaLocation="http://sumo.dlr.de/xsd/routes_file.xsd">
    <trip id="0" depart="0.00" from="1023038855" to="-1023038855"/>
    <trip id="1" depart="1.20" from="-749886180#2" to="-46830027"/>
    <trip id="2" depart="2.40" from="46830027" to="749886180#2"/>
    <trip id="7" depart="8.40" from="1023038855" to="34958205#2"/>
    <trip id="10" depart="12.00" from="46830027" to="749886180#2"/>
    <trip id="12" depart="14.40" from="750603169" to="-750603169"/>
    <trip id="13" depart="15.60" from="-34958205#2" to="-1023038855"/>
    <trip id="15" depart="18.00" from="46830027" to="749886180#2"/>
    <trip id="21" depart="25.20" from="-749886180#2" to="-46830027"/>
    <trip id="25" depart="30.00" from="-750603168" to="-46830027"/>
    <trip id="26" depart="31.20" from="-749886180#2" to="750603168"/>
    <trip id="27" depart="32.40" from="1023038855" to="34958205#2"/>
    <trip id="28" depart="33.60" from="-749886180#2" to="749886180#2"/>
    <trip id="32" depart="38.40" from="750603169" to="749886180#2"/>
    <trip id="34" depart="40.80" from="-749886180#2" to="-46830027"/>
    <trip id="35" depart="42.00" from="-749886180#2" to="750603168"/>
    <trip id="36" depart="43.20" from="750603169" to="-46830027"/>
    <trip id="38" depart="45.60" from="750603169" to="-750603169"/>
    <trip id="39" depart="46.80" from="-749886180#2" to="-46830027"/>
    <trip id="42" depart="50.40" from="-750603168" to="-46830027"/>
    <trip id="44" depart="52.80" from="-34958205#2" to="-1023038855"/>
    <trip id="45" depart="54.00" from="-34958205#2" to="34958205#2"/>
    <trip id="46" depart="55.20" from="46830027" to="-750603169"/>
    <trip id="49" depart="58.80" from="750603169" to="750603168"/>
    <trip id="54" depart="64.80" from="-750603168" to="750603168"/>
    <trip id="55" depart="66.00" from="750603169" to="-46830027"/>
    <trip id="57" depart="68.40" from="750603169" to="750603168"/>
    <trip id="59" depart="70.80" from="1023038855" to="-1023038855"/>
    <trip id="64" depart="76.80" from="750603169" to="749886180#2"/>
    <trip id="66" depart="79.20" from="750603169" to="750603168"/>
    <trip id="71" depart="85.20" from="-749886180#2" to="750603168"/>
    <trip id="72" depart="86.40" from="-750603168" to="-46830027"/>
    <trip id="74" depart="88.80" from="-749886180#2" to="-46830027"/>
    <trip id="79" depart="94.80" from="-749886180#2" to="-46830027"/>
    <trip id="80" depart="96.00" from="-34958205#2" to="34958205#2"/>
    <trip id="81" depart="97.20" from="-749886180#2" to="750603168"/>
    <trip id="83" depart="99.60" from="-749886180#2" to="749886180#2"/>
    <trip id="86" depart="103.20" from="-750603168" to="749886180#2"/>
    <trip id="87" depart="104.40" from="46830027" to="-46830027"/>
    <trip id="89" depart="106.80" from="-750603168" to="-750603169"/>
    <trip id="90" depart="108.00" from="46830027" to="749886180#2"/>
    <trip id="92" depart="110.40" from="-750603168" to="-750603169"/>
    <trip id="93" depart="111.60" from="750603169" to="-46830027"/>
    <trip id="94" depart="112.80" from="-749886180#2" to="-750603169"/>
    <trip id="95" depart="114.00" from="-750603168" to="-46830027"/>
    <trip id="96" depart="115.20" from="-749886180#2" to="750603168"/>
    <trip id="97" depart="116.40" from="-750603168" to="750603168"/>
    <trip id="98" depart="117.60" from="1023038855" to="-1023038855"/>
    <trip id="99" depart="118.80" from="750603169" to="750603168"/>
    <trip id="100" depart="120.00" from="750603169" to="750603168"/>
    <trip id="102" depart="122.40" from="-750603168" to="-46830027"/>
    <trip id="104" depart="124.80" from="-750603168" to="750603168"/>
    <trip id="105" depart="126.00" from="-749886180#2" to="749886180#2"/>
    <trip id="106" depart="127.20" from="-750603168" to="-750603169"/>
    <trip id="107" depart="128.40" from="750603169" to="750603168"/>
    <trip id="112" depart="134.40" from="-34958205#2" to="34958205#2"/>
    <trip id="118" depart="141.60" from="750603169" to="-46830027"/>
    <trip id="119" depart="142.80" from="1023038855" to="34958205#2"/>
    <trip id="122" depart="146.40" from="-749886180#2" to="749886180#2"/>
    <trip id="123" depart="147.60" from="-749886180#2" to="-750603169"/>
    <trip id="124" depart="148.80" from="46830027" to="-46830027"/>
    <trip id="125" depart="150.00" from="-749886180#2" to="749886180#2"/>
    <trip id="127" depart="152.40" from="750603169" to="750603168"/>
    <trip id="129" depart="154.80" from="-749886180#2" to="750603168"/>
    <trip id="130" depart="156.00" from="750603169" to="750603168"/>
    <trip id="132" depart="158.40" from="750603169" to="749886180#2"/>
    <trip id="134" depart="160.80" from="1023038855" to="-1023038855"/>
    <trip id="135" depart="162.00" from="46830027" to="-46830027"/>
    <trip id="137" depart="164.40" from="-34958205#2" to="-1023038855"/>
    <trip id="138" depart="165.60" from="-34958205#2" to="34958205#2"/>
    <trip id="140" depart="168.00" from="46830027" to="-46830027"/>
    <trip id="142" depart="170.40" from="-750603168" to="750603168"/>
    <trip id="144" depart="172.80" from="-750603168" to="-46830027"/>
    <trip id="152" depart="182.40" from="-34958205#2" to="-1023038855"/>
    <trip id="153" depart="183.60" from="-749886180#2" to="750603168"/>
    <trip id="154" depart="184.80" from="46830027" to="750603168"/>
    <trip id="155" depart="186.00" from="750603169" to="-46830027"/>
    <trip id="157" depart="188.40" from="46830027" to="750603168"/>
    <trip id="160" depart="192.00" from="750603169" to="750603168"/>
    <trip id="161" depart="193.20" from="46830027" to="750603168"/>
    <trip id="163" depart="195.60" from="-749886180#2" to="750603168"/>
    <trip id="164" depart="196.80" from="46830027" to="750603168"/>
    <trip id="165" depart="198.00" from="46830027" to="-46830027"/>
    <trip id="167" depart="200.40" from="750603169" to="750603168"/>
    <trip id="168" depart="201.60" from="-749886180#2" to="749886180#2"/>
    <trip id="169" depart="202.80" from="-750603168" to="-46830027"/>
    <trip id="170" depart="204.00" from="46830027" to="-46830027"/>
    <trip id="172" depart="206.40" from="-749886180#2" to="750603168"/>
    <trip id="173" depart="207.60" from="750603169" to="-46830027"/>
    <trip id="177" depart="212.40" from="750603169" to="-46830027"/>
    <trip id="178" depart="213.60" from="750603169" to="-46830027"/>
    <trip id="180" depart="216.00" from="46830027" to="-46830027"/>
    <trip id="181" depart="217.20" from="1023038855" to="34958205#2"/>
    <trip id="183" depart="219.60" from="-749886180#2" to="749886180#2"/>
    <trip id="186" depart="223.20" from="46830027" to="749886180#2"/>
    <trip id="189" depart="226.80" from="-749886180#2" to="750603168"/>
    <trip id="190" depart="228.00" from="46830027" to="-46830027"/>
    <trip id="191" depart="229.20" from="-749886180#2" to="-750603169"/>
    <trip id="192" depart="230.40" from="-750603168" to="-46830027"/>
    <trip id="194" depart="232.80" from="750603169" to="749886180#2"/>
    <trip id="200" depart="240.00" from="-750603168" to="-46830027"/>
    <trip id="201" depart="241.20" from="-750603168" to="750603168"/>
    <trip id="202" depart="242.40" from="46830027" to="-46830027"/>
    <trip id="203" depart="243.60" from="-34958205#2" to="34958205#2"/>
    <trip id="205" depart="246.00" from="46830027" to="749886180#2"/>
    <trip id="206" depart="247.20" from="46830027" to="-46830027"/>
    <trip id="208" depart="249.60" from="-749886180#2" to="-750603169"/>
    <trip id="211" depart="253.20" from="-749886180#2" to="749886180#2"/>
    <trip id="212" depart="254.40" from="-750603168" to="-46830027"/>
    <trip id="213" depart="255.60" from="1023038855" to="-1023038855"/>
    <trip id="214" depart="256.80" from="46830027" to="749886180#2"/>
    <trip id="216" depart="259.20" from="-749886180#2" to="750603168"/>
    <trip id="217" depart="260.40" from="1023038855" to="-1023038855"/>
    <trip id="218" depart="261.60" from="-749886180#2" to="750603168"/>
    <trip id="219" depart="262.80" from="-750603168" to="749886180#2"/>
    <trip id="220" depart="264.00" from="46830027" to="750603168"/>
    <trip id="225" depart="270.00" from="750603169" to="749886180#2"/>
    <trip id="226" depart="271.20" from="-750603168" to="-46830027"/>
    <trip id="231" depart="277.20" from="-749886180#2" to="-46830027"/>
    <trip id="232" depart="278.40" from="1023038855" to="-1023038855"/>
    <trip id="233" depart="279.60" from="-749886180#2" to="749886180#2"/>
    <trip id="236" depart="283.20" from="-750603168" to="-46830027"/>
    <trip id="237" depart="284.40" from="-750603168" to="750603168"/>
    <trip id="239" depart="286.80" from="750603169" to="749886180#2"/>
    <trip id="241" depart="289.20" from="-750603168" to="749886180#2"/>
    <trip id="242" depart="290.40" from="750603169" to="750603168"/>
    <trip id="243" depart="291.60" from="-750603168" to="749886180#2"/>
    <trip id="244" depart="292.80" from="1023038855" to="34958205#2"/>
    <trip id="245" depart="294.00" from="-749886180#2" to="-46830027"/>
    <trip id="247" depart="296.40" from="-750603168" to="749886180#2"/>
    <trip id="250" depart="300.00" from="1023038855" to="-1023038855"/>
    <trip id="252" depart="302.40" from="-34958205#2" to="34958205#2"/>
    <trip id="255" depart="306.00" from="-749886180#2" to="-46830027"/>
    <trip id="256" depart="307.20" from="46830027" to="-750603169"/>
    <trip id="257" depart="308.40" from="46830027" to="749886180#2"/>
    <trip id="259" depart="310.80" from="-34958205#2" to="34958205#2"/>
    <trip id="260" depart="312.00" from="750603169" to="-750603169"/>
    <trip id="263" depart="315.60" from="750603169" to="-46830027"/>
    <trip id="264" depart="316.80" from="-34958205#2" to="-1023038855"/>
    <trip id="267" depart="320.40" from="46830027" to="749886180#2"/>
    <trip id="270" depart="324.00" from="46830027" to="750603168"/>
    <trip id="271" depart="325.20" from="-34958205#2" to="-1023038855"/>
    <trip id="272" depart="326.40" from="-749886180#2" to="749886180#2"/>
    <trip id="273" depart="327.60" from="750603169" to="-750603169"/>
    <trip id="279" depart="334.80" from="46830027" to="-750603169"/>
    <trip id="280" depart="336.00" from="-750603168" to="-750603169"/>
    <trip id="282" depart="338.40" from="750603169" to="749886180#2"/>
    <trip id="285" depart="342.00" from="46830027" to="-750603169"/>
    <trip id="286" depart="343.20" from="46830027" to="750603168"/>
    <trip id="287" depart="344.40" from="-749886180#2" to="749886180#2"/>
    <trip id="289" depart="346.80" from="-750603168" to="749886180#2"/>
    <trip id="290" depart="348.00" from="-749886180#2" to="750603168"/>
    <trip id="292" depart="350.40" from="750603169" to="-46830027"/>
    <trip id="295" depart="354.00" from="750603169" to="-46830027"/>
    <trip id="296" depart="355.20" from="-749886180#2" to="749886180#2"/>
    <trip id="297" depart="356.40" from="-750603168" to="750603168"/>
    <trip id="298" depart="357.60" from="46830027" to="-46830027"/>
    <trip id="301" depart="361.20" from="-750603168" to="749886180#2"/>
    <trip id="303" depart="363.60" from="-750603168" to="749886180#2"/>
    <trip id="305" depart="366.00" from="46830027" to="-46830027"/>
    <trip id="308" depart="369.60" from="46830027" to="-46830027"/>
    <trip id="309" depart="370.80" from="46830027" to="-46830027"/>
    <trip id="313" depart="375.60" from="-749886180#2" to="-46830027"/>
    <trip id="314" depart="376.80" from="-750603168" to="749886180#2"/>
    <trip id="317" depart="380.40" from="-749886180#2" to="-46830027"/>
    <trip id="322" depart="386.40" from="750603169" to="-750603169"/>
    <trip id="324" depart="388.80" from="-750603168" to="-750603169"/>
    <trip id="326" depart="391.20" from="750603169" to="-750603169"/>
    <trip id="327" depart="392.40" from="46830027" to="-750603169"/>
    <trip id="328" depart="393.60" from="-34958205#2" to="34958205#2"/>
    <trip id="329" depart="394.80" from="-34958205#2" to="-1023038855"/>
    <trip id="333" depart="399.60" from="46830027" to="-46830027"/>
    <trip id="335" depart="402.00" from="-750603168" to="750603168"/>
    <trip id="336" depart="403.20" from="750603169" to="-46830027"/>
    <trip id="337" depart="404.40" from="1023038855" to="34958205#2"/>
    <trip id="338" depart="405.60" from="46830027" to="750603168"/>
    <trip id="339" depart="406.80" from="-749886180#2" to="-46830027"/>
    <trip id="340" depart="408.00" from="1023038855" to="-1023038855"/>
    <trip id="344" depart="412.80" from="-749886180#2" to="749886180#2"/>
    <trip id="345" depart="414.00" from="46830027" to="-750603169"/>
    <trip id="346" depart="415.20" from="46830027" to="750603168"/>
    <trip id="355" depart="426.00" from="46830027" to="749886180#2"/>
    <trip id="359" depart="430.80" from="-749886180#2" to="-46830027"/>
    <trip id="362" depart="434.40" from="750603169" to="750603168"/>
    <trip id="363" depart="435.60" from="46830027" to="-46830027"/>
    <trip id="366" depart="439.20" from="750603169" to="-46830027"/>
    <trip id="367" depart="440.40" from="1023038855" to="34958205#2"/>
    <trip id="369" depart="442.80" from="-750603168" to="-46830027"/>
    <trip id="370" depart="444.00" from="46830027" to="750603168"/>
    <trip id="371" depart="445.20" from="-749886180#2" to="749886180#2"/>
    <trip id="372" depart="446.40" from="-749886180#2" to="750603168"/>
    <trip id="374" depart="448.80" from="-750603168" to="-46830027"/>
    <trip id="375" depart="450.00" from="-749886180#2" to="750603168"/>
    <trip id="379" depart="454.80" from="-749886180#2" to="-750603169"/>
    <trip id="381" depart="457.20" from="46830027" to="-46830027"/>
    <trip id="383" depart="459.60" from="-750603168" to="749886180#2"/>
    <trip id="386" depart="463.20" from="-34958205#2" to="34958205#2"/>
    <trip id="387" depart="464.40" from="1023038855" to="-1023038855"/>
    <trip id="388" depart="465.60" from="750603169" to="750603168"/>
    <trip id="390" depart="468.00" from="46830027" to="-750603169"/>
    <trip id="392" depart="470.40" from="-749886180#2" to="750603168"/>
    <trip id="393" depart="471.60" from="750603169" to="-46830027"/>
    <trip id="396" depart="475.20" from="750603169" to="750603168"/>
    <trip id="397" depart="476.40" from="-749886180#2" to="749886180#2"/>
    <trip id="398" depart="477.60" from="-750603168" to="750603168"/>
    <trip id="400" depart="480.00" from="-749886180#2" to="-46830027"/>
    <trip id="404" depart="484.80" from="1023038855" to="34958205#2"/>
    <trip id="405" depart="486.00" from="-750603168" to="-46830027"/>
    <trip id="406" depart="487.20" from="-749886180#2" to="749886180#2"/>
    <trip id="409" depart="490.80" from="46830027" to="749886180#2"/>
    <trip id="410" depart="492.00" from="46830027" to="-750603169"/>
    <trip id="412" depart="494.40" from="750603169" to="-750603169"/>
    <trip id="413" depart="495.60" from="-34958205#2" to="34958205#2"/>
    <trip id="415" depart="498.00" from="750603169" to="-750603169"/>
    <trip id="417" depart="500.40" from="46830027" to="-750603169"/>
    <trip id="418" depart="501.60" from="1023038855" to="-1023038855"/>
    <trip id="419" depart="502.80" from="-750603168" to="750603168"/>
    <trip id="420" depart="504.00" from="-750603168" to="749886180#2"/>
    <trip id="422" depart="506.40" from="750603169" to="750603168"/>
    <trip id="423" depart="507.60" from="-750603168" to="-46830027"/>
    <trip id="424" depart="508.80" from="46830027" to="749886180#2"/>
    <trip id="426" depart="511.20" from="-34958205#2" to="34958205#2"/>
    <trip id="427" depart="512.40" from="750603169" to="750603168"/>
    <trip id="428" depart="513.60" from="46830027" to="-750603169"/>
    <trip id="429" depart="514.80" from="-34958205#2" to="34958205#2"/>
    <trip id="430" depart="516.00" from="750603169" to="-750603169"/>
    <trip id="431" depart="517.20" from="46830027" to="750603168"/>
    <trip id="433" depart="519.60" from="-749886180#2" to="-750603169"/>
    <trip id="434" depart="520.80" from="-34958205#2" to="34958205#2"/>
    <trip id="438" depart="525.60" from="-749886180#2" to="750603168"/>
    <trip id="440" depart="528.00" from="-749886180#2" to="-46830027"/>
    <trip id="442" depart="530.40" from="750603169" to="749886180#2"/>
    <trip id="446" depart="535.20" from="-749886180#2" to="750603168"/>
    <trip id="447" depart="536.40" from="-749886180#2" to="-750603169"/>
    <trip id="448" depart="537.60" from="-750603168" to="-46830027"/>
    <trip id="449" depart="538.80" from="1023038855" to="34958205#2"/>
    <trip id="450" depart="540.00" from="750603169" to="-46830027"/>
    <trip id="453" depart="543.60" from="46830027" to="749886180#2"/>
    <trip id="454" depart="544.80" from="-34958205#2" to="34958205#2"/>
    <trip id="455" depart="546.00" from="-750603168" to="750603168"/>
    <trip id="456" depart="547.20" from="-749886180#2" to="749886180#2"/>
    <trip id="458" depart="549.60" from="1023038855" to="34958205#2"/>
    <trip id="459" depart="550.80" from="46830027" to="749886180#2"/>
    <trip id="465" depart="558.00" from="-749886180#2" to="749886180#2"/>
    <trip id="469" depart="562.80" from="46830027" to="-46830027"/>
    <trip id="470" depart="564.00" from="46830027" to="-750603169"/>
    <trip id="471" depart="565.20" from="46830027" to="749886180#2"/>
    <trip id="474" depart="568.80" from="750603169" to="750603168"/>
    <trip id="475" depart="570.00" from="46830027" to="750603168"/>
    <trip id="476" depart="571.20" from="750603169" to="749886180#2"/>
    <trip id="477" depart="572.40" from="-750603168" to="749886180#2"/>
    <trip id="478" depart="573.60" from="-34958205#2" to="34958205#2"/>
    <trip id="479" depart="574.80" from="-750603168" to="749886180#2"/>
    <trip id="481" depart="577.20" from="46830027" to="750603168"/>
    <trip id="486" depart="583.20" from="46830027" to="750603168"/>
    <trip id="487" depart="584.40" from="-749886180#2" to="-750603169"/>
    <trip id="489" depart="586.80" from="-749886180#2" to="-750603169"/>
    <trip id="492" depart="590.40" from="46830027" to="749886180#2"/>
    <trip id="493" depart="591.60" from="750603169" to="-750603169"/>
    <trip id="496" depart="595.20" from="-750603168" to="-750603169"/>
    <trip id="498" depart="597.60" from="-750603168" to="-750603169"/>
    <trip id="499" depart="598.80" from="750603169" to="750603168"/>
    <trip id="502" depart="602.40" from="-750603168" to="-750603169"/>
    <trip id="504" depart="604.80" from="750603169" to="-750603169"/>
    <trip id="505" depart="606.00" from="1023038855" to="34958205#2"/>
    <trip id="506" depart="607.20" from="1023038855" to="-1023038855"/>
    <trip id="507" depart="608.40" from="46830027" to="-46830027"/>
    <trip id="508" depart="609.60" from="-34958205#2" to="34958205#2"/>
    <trip id="510" depart="612.00" from="-749886180#2" to="-46830027"/>
    <trip id="511" depart="613.20" from="750603169" to="-46830027"/>
    <trip id="514" depart="616.80" from="-34958205#2" to="-1023038855"/>
    <trip id="515" depart="618.00" from="-749886180#2" to="-46830027"/>
    <trip id="516" depart="619.20" from="1023038855" to="-1023038855"/>
    <trip id="518" depart="621.60" from="-749886180#2" to="-46830027"/>
    <trip id="521" depart="625.20" from="46830027" to="-750603169"/>
    <trip id="523" depart="627.60" from="-34958205#2" to="34958205#2"/>
    <trip id="525" depart="630.00" from="46830027" to="750603168"/>
    <trip id="528" depart="633.60" from="-750603168" to="-750603169"/>
    <trip id="529" depart="634.80" from="46830027" to="-750603169"/>
    <trip id="531" depart="637.20" from="-34958205#2" to="34958205#2"/>
    <trip id="533" depart="639.60" from="1023038855" to="34958205#2"/>
    <trip id="534" depart="640.80" from="-749886180#2" to="750603168"/>
    <trip id="536" depart="643.20" from="1023038855" to="-1023038855"/>
    <trip id="537" depart="644.40" from="46830027" to="750603168"/>
    <trip id="539" depart="646.80" from="46830027" to="-46830027"/>
    <trip id="540" depart="648.00" from="-750603168" to="-46830027"/>
    <trip id="541" depart="649.20" from="-750603168" to="-750603169"/>
    <trip id="549" depart="658.80" from="1023038855" to="34958205#2"/>
    <trip id="552" depart="662.40" from="46830027" to="750603168"/>
    <trip id="553" depart="663.60" from="46830027" to="750603168"/>
    <trip id="558" depart="669.60" from="-750603168" to="749886180#2"/>
    <trip id="560" depart="672.00" from="750603169" to="750603168"/>
    <trip id="562" depart="674.40" from="1023038855" to="-1023038855"/>
    <trip id="563" depart="675.60" from="750603169" to="749886180#2"/>
    <trip id="564" depart="676.80" from="-749886180#2" to="-46830027"/>
    <trip id="565" depart="678.00" from="46830027" to="-46830027"/>
    <trip id="569" depart="682.80" from="1023038855" to="-1023038855"/>
    <trip id="570" depart="684.00" from="46830027" to="-46830027"/>
    <trip id="571" depart="685.20" from="-750603168" to="-750603169"/>
    <trip id="572" depart="686.40" from="-750603168" to="749886180#2"/>
    <trip id="574" depart="688.80" from="-34958205#2" to="-1023038855"/>
    <trip id="575" depart="690.00" from="-34958205#2" to="34958205#2"/>
    <trip id="576" depart="691.20" from="46830027" to="-46830027"/>
    <trip id="578" depart="693.60" from="-750603168" to="-46830027"/>
    <trip id="580" depart="696.00" from="-750603168" to="-46830027"/>
    <trip id="581" depart="697.20" from="46830027" to="-750603169"/>
    <trip id="586" depart="703.20" from="-749886180#2" to="-46830027"/>
    <trip id="588" depart="705.60" from="-749886180#2" to="-750603169"/>
    <trip id="590" depart="708.00" from="750603169" to="749886180#2"/>
    <trip id="592" depart="710.40" from="-34958205#2" to="-1023038855"/>
    <trip id="593" depart="711.60" from="750603169" to="750603168"/>
    <trip id="594" depart="712.80" from="1023038855" to="34958205#2"/>
    <trip id="595" depart="714.00" from="46830027" to="-750603169"/>
    <trip id="596" depart="715.20" from="-34958205#2" to="-1023038855"/>
    <trip id="597" depart="716.40" from="-749886180#2" to="749886180#2"/>
    <trip id="600" depart="720.00" from="750603169" to="-46830027"/>
    <trip id="601" depart="721.20" from="1023038855" to="34958205#2"/>
    <trip id="602" depart="722.40" from="-750603168" to="-46830027"/>
    <trip id="603" depart="723.60" from="-750603168" to="-46830027"/>
    <trip id="605" depart="726.00" from="-34958205#2" to="34958205#2"/>
    <trip id="606" depart="727.20" from="750603169" to="-750603169"/>
    <trip id="607" depart="728.40" from="46830027" to="749886180#2"/>
    <trip id="608" depart="729.60" from="46830027" to="-46830027"/>
    <trip id="612" depart="734.40" from="46830027" to="-750603169"/>
    <trip id="613" depart="735.60" from="46830027" to="749886180#2"/>
    <trip id="614" depart="736.80" from="-750603168" to="750603168"/>
    <trip id="615" depart="738.00" from="1023038855" to="34958205#2"/>
    <trip id="617" depart="740.40" from="1023038855" to="-1023038855"/>
    <trip id="619" depart="742.80" from="-749886180#2" to="-46830027"/>
    <trip id="620" depart="744.00" from="-34958205#2" to="34958205#2"/>
    <trip id="621" depart="745.20" from="-749886180#2" to="-750603169"/>
    <trip id="627" depart="752.40" from="750603169" to="-750603169"/>
    <trip id="629" depart="754.80" from="-749886180#2" to="-750603169"/>
    <trip id="630" depart="756.00" from="-34958205#2" to="-1023038855"/>
    <trip id="632" depart="758.40" from="-750603168" to="749886180#2"/>
    <trip id="634" depart="760.80" from="-749886180#2" to="-750603169"/>
    <trip id="637" depart="764.40" from="-749886180#2" to="-750603169"/>
    <trip id="640" depart="768.00" from="-34958205#2" to="-1023038855"/>
    <trip id="641" depart="769.20" from="46830027" to="-46830027"/>
    <trip id="643" depart="771.60" from="750603169" to="750603168"/>
    <trip id="646" depart="775.20" from="750603169" to="749886180#2"/>
    <trip id="648" depart="777.60" from="750603169" to="-46830027"/>
    <trip id="649" depart="778.80" from="-750603168" to="749886180#2"/>
    <trip id="650" depart="780.00" from="46830027" to="749886180#2"/>
    <trip id="651" depart="781.20" from="46830027" to="749886180#2"/>
    <trip id="654" depart="784.80" from="-750603168" to="-750603169"/>
    <trip id="655" depart="786.00" from="-749886180#2" to="-46830027"/>
    <trip id="656" depart="787.20" from="750603169" to="-750603169"/>
    <trip id="660" depart="792.00" from="750603169" to="750603168"/>
    <trip id="664" depart="796.80" from="46830027" to="749886180#2"/>
    <trip id="666" depart="799.20" from="-750603168" to="-750603169"/>
    <trip id="667" depart="800.40" from="46830027" to="-46830027"/>
    <trip id="668" depart="801.60" from="-750603168" to="-46830027"/>
    <trip id="669" depart="802.80" from="46830027" to="-750603169"/>
    <trip id="671" depart="805.20" from="46830027" to="-750603169"/>
    <trip id="672" depart="806.40" from="750603169" to="-750603169"/>
    <trip id="673" depart="807.60" from="750603169" to="750603168"/>
    <trip id="674" depart="808.80" from="-750603168" to="-46830027"/>
    <trip id="676" depart="811.20" from="750603169" to="749886180#2"/>
    <trip id="681" depart="817.20" from="750603169" to="-46830027"/>
    <trip id="682" depart="818.40" from="46830027" to="-46830027"/>
    <trip id="684" depart="820.80" from="-750603168" to="750603168"/>
    <trip id="685" depart="822.00" from="-749886180#2" to="-750603169"/>
    <trip id="687" depart="824.40" from="-34958205#2" to="34958205#2"/>
    <trip id="688" depart="825.60" from="-749886180#2" to="750603168"/>
    <trip id="690" depart="828.00" from="750603169" to="750603168"/>
    <trip id="693" depart="831.60" from="46830027" to="749886180#2"/>
    <trip id="701" depart="841.20" from="-750603168" to="749886180#2"/>
    <trip id="704" depart="844.80" from="-34958205#2" to="34958205#2"/>
    <trip id="707" depart="848.40" from="-749886180#2" to="-750603169"/>
    <trip id="708" depart="849.60" from="1023038855" to="-1023038855"/>
    <trip id="710" depart="852.00" from="1023038855" to="34958205#2"/>
    <trip id="712" depart="854.40" from="-750603168" to="-750603169"/>
    <trip id="715" depart="858.00" from="46830027" to="-750603169"/>
    <trip id="717" depart="860.40" from="46830027" to="749886180#2"/>
    <trip id="720" depart="864.00" from="-749886180#2" to="749886180#2"/>
    <trip id="721" depart="865.20" from="-750603168" to="749886180#2"/>
    <trip id="724" depart="868.80" from="-750603168" to="-46830027"/>
    <trip id="729" depart="874.80" from="46830027" to="-46830027"/>
    <trip id="730" depart="876.00" from="-750603168" to="749886180#2"/>
    <trip id="731" depart="877.20" from="750603169" to="-46830027"/>
    <trip id="733" depart="879.60" from="750603169" to="749886180#2"/>
    <trip id="734" depart="880.80" from="750603169" to="-750603169"/>
    <trip id="735" depart="882.00" from="750603169" to="-750603169"/>
    <trip id="736" depart="883.20" from="-750603168" to="750603168"/>
    <trip id="741" depart="889.20" from="-34958205#2" to="34958205#2"/>
    <trip id="743" depart="891.60" from="-750603168" to="749886180#2"/>
    <trip id="745" depart="894.00" from="750603169" to="-750603169"/>
    <trip id="746" depart="895.20" from="750603169" to="-46830027"/>
    <trip id="747" depart="896.40" from="750603169" to="750603168"/>
    <trip id="748" depart="897.60" from="-34958205#2" to="34958205#2"/>
    <trip id="749" depart="898.80" from="-750603168" to="749886180#2"/>
    <trip id="750" depart="900.00" from="46830027" to="750603168"/>
    <trip id="751" depart="901.20" from="-34958205#2" to="34958205#2"/>
    <trip id="754" depart="904.80" from="-750603168" to="-750603169"/>
    <trip id="755" depart="906.00" from="1023038855" to="34958205#2"/>
    <trip id="756" depart="907.20" from="46830027" to="750603168"/>
    <trip id="757" depart="908.40" from="-750603168" to="749886180#2"/>
    <trip id="758" depart="909.60" from="1023038855" to="34958205#2"/>
    <trip id="761" depart="913.20" from="46830027" to="-750603169"/>
    <trip id="763" depart="915.60" from="-749886180#2" to="-46830027"/>
    <trip id="764" depart="916.80" from="-750603168" to="750603168"/>
    <trip id="765" depart="918.00" from="-749886180#2" to="750603168"/>
    <trip id="767" depart="920.40" from="750603169" to="-750603169"/>