<?xml version="1.0" encoding="UTF-8"?>

<!-- generated on 2024-09-03 01:38:10 by Eclipse SUMO netconvert Version 1.20.0
<configuration xmlns:xsi="http://www.w3.org/2001/XMLSchema-instance" xsi:noNamespaceSchemaLocation="http://sumo.dlr.de/xsd/netconvertConfiguration.xsd">

    <input>
        <osm-files value="train_files/roundabout/hard/osm_files/map(105).osm"/>
    </input>

    <output>
        <output-file value="train_files/roundabout/hard/outputs/map(105)_dict/map(105)/map(105).net.xml"/>
    </output>

    <projection>
        <proj.utm value="true"/>
    </projection>

    <building_defaults>
        <default.junctions.keep-clear value="false"/>
    </building_defaults>

</configuration>
-->

<net version="1.20" junctionCornerDetail="5" limitTurnSpeed="5.50" xmlns:xsi="http://www.w3.org/2001/XMLSchema-instance" xsi:noNamespaceSchemaLocation="http://sumo.dlr.de/xsd/net_file.xsd">

    <location netOffset="-448322.67,-5413812.42" convBoundary="0.00,0.00,3163.74,1015.35" origBoundary="2.295195,48.874549,2.338282,48.884454" projParameter="+proj=utm +zone=31 +ellps=WGS84 +datum=WGS84 +units=m +no_defs"/>

    <type id="highway.cycleway" priority="1" numLanes="1" speed="5.56" allow="bicycle" oneway="0" width="2.00"/>
    <type id="highway.footway" priority="1" numLanes="1" speed="2.78" allow="pedestrian" oneway="1" width="2.00"/>
    <type id="highway.pedestrian" priority="1" numLanes="1" speed="2.78" allow="pedestrian" oneway="1" width="2.00"/>
    <type id="highway.primary" priority="12" numLanes="2" speed="27.78" disallow="tram rail_urban rail rail_electric rail_fast ship container cable_car subway aircraft wheelchair scooter drone" oneway="0"/>
    <type id="highway.secondary" priority="11" numLanes="1" speed="27.78" disallow="tram rail_urban rail rail_electric rail_fast ship container cable_car subway aircraft wheelchair scooter drone" oneway="0"/>
    <type id="highway.secondary_link" priority="6" numLanes="1" speed="22.22" disallow="tram rail_urban rail rail_electric rail_fast ship container cable_car subway aircraft wheelchair scooter drone" oneway="0"/>
    <type id="highway.service" priority="1" numLanes="1" speed="5.56" allow="pedestrian delivery bicycle" oneway="0"/>
    <type id="highway.steps" priority="1" numLanes="1" speed="1.39" allow="pedestrian" oneway="1" width="2.00"/>
    <type id="highway.tertiary" priority="10" numLanes="1" speed="22.22" disallow="tram rail_urban rail rail_electric rail_fast ship container cable_car subway aircraft wheelchair scooter drone" oneway="0"/>
    <type id="railway.subway" priority="18" numLanes="1" speed="27.78" allow="subway" oneway="1"/>

    <edge id=":10218349654_0" function="internal">
        <lane id=":10218349654_0_0" index="0" allow="bus bicycle" speed="8.33" length="4.63" shape="240.20,381.70 238.14,377.55"/>
        <lane id=":10218349654_0_1" index="1" disallow="tram rail_urban rail rail_electric rail_fast ship container cable_car subway aircraft wheelchair scooter drone" speed="8.33" length="4.63" shape="243.06,380.28 241.01,376.14"/>
    </edge>
    <edge id=":10218349654_2" function="internal">
        <lane id=":10218349654_2_0" index="0" disallow="tram rail_urban rail rail_electric rail_fast ship container cable_car subway aircraft wheelchair scooter drone" speed="8.33" length="4.60" shape="246.75,373.31 248.79,377.42"/>
        <lane id=":10218349654_2_1" index="1" disallow="tram rail_urban rail rail_electric rail_fast ship container cable_car subway aircraft wheelchair scooter drone" speed="8.33" length="4.60" shape="243.88,374.72 245.93,378.85"/>
    </edge>
    <edge id=":10218349669_0" function="internal">
        <lane id=":10218349669_0_0" index="0" allow="bus bicycle" speed="8.33" length="3.92" shape="259.24,333.91 262.90,335.42"/>
        <lane id=":10218349669_0_1" index="1" disallow="tram rail_urban rail rail_electric rail_fast ship container cable_car subway aircraft wheelchair scooter drone" speed="8.33" length="3.92" shape="258.07,336.89 261.67,338.37"/>
    </edge>
    <edge id=":10221850726_0" function="internal">
        <lane id=":10221850726_0_0" index="0" disallow="tram rail_urban rail rail_electric rail_fast ship container cable_car subway aircraft wheelchair scooter drone" speed="8.33" length="4.34" shape="177.77,324.79 176.23,321.75"/>
        <lane id=":10221850726_0_1" index="1" disallow="tram rail_urban rail rail_electric rail_fast ship container cable_car subway aircraft wheelchair scooter drone" speed="8.33" length="4.34" shape="180.62,323.34 178.24,318.64"/>
    </edge>
    <edge id=":10221850728_0" function="internal">
        <lane id=":10221850728_0_0" index="0" disallow="tram rail_urban rail rail_electric rail_fast ship container cable_car subway aircraft wheelchair scooter drone" speed="8.33" length="5.07" shape="189.80,320.91 188.89,315.92"/>
        <lane id=":10221850728_0_1" index="1" disallow="tram rail_urban rail rail_electric rail_fast ship container cable_car subway aircraft wheelchair scooter drone" speed="8.33" length="5.07" shape="192.95,320.34 192.04,315.35"/>
        <lane id=":10221850728_0_2" index="2" disallow="tram rail_urban rail rail_electric rail_fast ship container cable_car subway aircraft wheelchair scooter drone" speed="8.33" length="5.07" shape="196.10,319.77 195.19,314.78"/>
    </edge>
    <edge id=":10221850733_0" function="internal">
        <lane id=":10221850733_0_0" index="0" allow="pedestrian delivery bicycle" speed="5.56" length="7.60" shape="292.35,254.07 286.98,248.68"/>
    </edge>
    <edge id=":10221850733_1" function="internal">
        <lane id=":10221850733_1_0" index="0" allow="pedestrian delivery bicycle" speed="3.65" length="1.44" shape="292.35,254.07 292.07,252.65"/>
    </edge>
    <edge id=":10221850733_4" function="internal">
        <lane id=":10221850733_4_0" index="0" allow="pedestrian delivery bicycle" speed="3.65" length="3.23" shape="292.07,252.65 292.35,251.81 293.20,251.52 294.61,251.81"/>
    </edge>
    <edge id=":10221850733_2" function="internal">
        <lane id=":10221850733_2_0" index="0" allow="pedestrian delivery bicycle" speed="5.56" length="7.60" shape="289.25,246.42 294.61,251.81"/>
    </edge>
    <edge id=":10221850733_3" function="internal">
        <lane id=":10221850733_3_0" index="0" allow="pedestrian delivery bicycle" speed="3.65" length="1.44" shape="289.25,246.42 289.53,247.84"/>
    </edge>
    <edge id=":10221850733_5" function="internal">
        <lane id=":10221850733_5_0" index="0" allow="pedestrian delivery bicycle" speed="3.65" length="3.23" shape="289.53,247.84 289.25,248.69 288.40,248.97 286.98,248.68"/>
    </edge>
    <edge id=":10221850791_0" function="internal">
        <lane id=":10221850791_0_0" index="0" disallow="tram rail_urban rail rail_electric rail_fast ship container cable_car subway aircraft wheelchair scooter drone" speed="8.33" length="2.73" shape="247.88,339.56 247.86,342.44"/>
        <lane id=":10221850791_0_1" index="1" disallow="tram rail_urban rail rail_electric rail_fast ship container cable_car subway aircraft wheelchair scooter drone" speed="8.33" length="2.73" shape="244.68,339.54 244.66,342.27"/>
        <lane id=":10221850791_0_2" index="2" disallow="tram rail_urban rail rail_electric rail_fast ship container cable_car subway aircraft wheelchair scooter drone" speed="8.33" length="2.73" shape="241.48,339.53 241.46,342.10"/>
    </edge>
    <edge id=":11358659516_0" function="internal">
        <lane id=":11358659516_0_0" index="0" disallow="tram rail_urban rail rail_electric rail_fast ship container cable_car subway aircraft wheelchair scooter drone" speed="8.33" length="5.33" shape="188.96,286.61 189.18,281.33"/>
        <lane id=":11358659516_0_1" index="1" disallow="tram rail_urban rail rail_electric rail_fast ship container cable_car subway aircraft wheelchair scooter drone" speed="8.33" length="5.33" shape="192.15,286.79 192.38,281.42"/>
    </edge>
    <edge id=":11989571133_0" function="internal">
        <lane id=":11989571133_0_0" index="0" disallow="tram rail_urban rail rail_electric rail_fast ship container cable_car subway aircraft wheelchair scooter drone" speed="3.65" length="4.67" shape="67.18,345.77 65.79,345.40 65.15,344.77 65.27,343.89 66.14,342.74"/>
    </edge>
    <edge id=":12009276962_0" function="internal">
        <lane id=":12009276962_0_0" index="0" disallow="tram rail_urban rail rail_electric rail_fast ship container cable_car subway aircraft wheelchair scooter drone" speed="8.33" length="5.53" shape="197.00,274.03 197.55,275.41 197.82,276.43 198.21,277.36 199.13,278.48"/>
        <lane id=":12009276962_0_1" index="1" disallow="tram rail_urban rail rail_electric rail_fast ship container cable_car subway aircraft wheelchair scooter drone" speed="8.33" length="5.53" shape="194.13,275.44 194.82,277.11 195.20,278.32 195.74,279.42 196.89,280.76"/>
    </edge>
    <edge id=":12009276962_2" function="internal">
        <lane id=":12009276962_2_0" index="0" disallow="tram rail_urban rail rail_electric rail_fast ship container cable_car subway aircraft wheelchair scooter drone" speed="3.65" length="4.67" shape="194.13,275.44 193.94,276.87 193.40,277.58 192.51,277.57 191.26,276.84"/>
    </edge>
    <edge id=":12009276962_3" function="internal">
        <lane id=":12009276962_3_0" index="0" disallow="tram rail_urban rail rail_electric rail_fast ship container cable_car subway aircraft wheelchair scooter drone" speed="8.33" length="3.82" shape="189.19,281.13 189.17,280.24 189.05,279.63 188.79,279.06 188.39,278.25"/>
        <lane id=":12009276962_3_1" index="1" disallow="tram rail_urban rail rail_electric rail_fast ship container cable_car subway aircraft wheelchair scooter drone" speed="8.33" length="3.82" shape="192.38,281.22 192.38,279.87 192.22,278.95 191.86,278.07 191.26,276.84"/>
    </edge>
    <edge id=":12009276962_5" function="internal">
        <lane id=":12009276962_5_0" index="0" disallow="tram rail_urban rail rail_electric rail_fast ship container cable_car subway aircraft wheelchair scooter drone" speed="4.78" length="6.90" shape="192.38,281.22 192.72,279.41 193.58,278.72 194.97,279.17 196.89,280.76"/>
    </edge>
    <edge id=":21660340_0" function="internal">
        <lane id=":21660340_0_0" index="0" disallow="tram rail_urban rail rail_electric rail_fast ship container cable_car subway aircraft wheelchair scooter drone" speed="3.65" length="4.67" shape="475.11,154.23 476.56,154.26 477.32,154.72 477.41,155.61 476.83,156.93"/>
    </edge>
    <edge id=":21660970_0" function="internal">
        <lane id=":21660970_0_0" index="0" disallow="tram rail_urban rail rail_electric rail_fast ship container cable_car subway aircraft wheelchair scooter drone" speed="6.12" length="8.76" shape="188.51,313.80 187.73,311.39 186.43,309.92 184.62,309.39 182.28,309.80"/>
    </edge>
    <edge id=":21660970_1" function="internal">
        <lane id=":21660970_1_0" index="0" disallow="tram rail_urban rail rail_electric rail_fast ship container cable_car subway aircraft wheelchair scooter drone" speed="8.33" length="26.75" shape="188.51,313.80 187.48,305.38 187.61,299.07 188.30,293.37 188.95,286.81"/>
        <lane id=":21660970_1_1" index="1" disallow="tram rail_urban rail rail_electric rail_fast ship container cable_car subway aircraft wheelchair scooter drone" speed="8.33" length="26.75" shape="191.66,313.23 190.67,305.09 190.81,299.01 191.50,293.49 192.14,286.99"/>
    </edge>
    <edge id=":21660970_3" function="internal">
        <lane id=":21660970_3_0" index="0" disallow="tram rail_urban rail rail_electric rail_fast ship container cable_car subway aircraft wheelchair scooter drone" speed="8.33" length="16.87" shape="194.81,312.66 194.16,306.82 194.58,302.36 196.07,299.27 198.64,297.56"/>
    </edge>
    <edge id=":21660970_4" function="internal">
        <lane id=":21660970_4_0" index="0" disallow="tram rail_urban rail rail_electric rail_fast ship container cable_car subway aircraft wheelchair scooter drone" speed="8.33" length="19.39" shape="200.65,303.63 182.28,309.80"/>
        <lane id=":21660970_4_1" index="1" disallow="tram rail_urban rail rail_electric rail_fast ship container cable_car subway aircraft wheelchair scooter drone" speed="8.33" length="19.39" shape="199.64,300.59 181.25,306.77"/>
    </edge>
    <edge id=":21660970_6" function="internal">
        <lane id=":21660970_6_0" index="0" disallow="tram rail_urban rail rail_electric rail_fast ship container cable_car subway aircraft wheelchair scooter drone" speed="8.09" length="18.72" shape="199.64,300.59 196.01,300.79 193.55,298.59 192.26,293.99 192.14,286.99"/>
    </edge>
    <edge id=":21660970_7" function="internal">
        <lane id=":21660970_7_0" index="0" disallow="tram rail_urban rail rail_electric rail_fast ship container cable_car subway aircraft wheelchair scooter drone" speed="3.65" length="4.67" shape="199.64,300.59 198.25,300.21 197.62,299.58 197.75,298.69 198.64,297.56"/>
    </edge>
    <edge id=":21660970_8" function="internal">
        <lane id=":21660970_8_0" index="0" allow="bus bicycle" speed="8.33" length="14.71" shape="177.13,294.65 182.22,292.68 185.88,290.72 188.13,288.76 188.95,286.81"/>
        <lane id=":21660970_8_1" index="1" disallow="tram rail_urban rail rail_electric rail_fast ship container cable_car subway aircraft wheelchair scooter drone" speed="8.33" length="18.43" shape="178.16,297.68 184.15,295.27 188.47,292.69 191.14,289.93 192.14,286.99"/>
    </edge>
    <edge id=":21660970_10" function="internal">
        <lane id=":21660970_10_0" index="0" disallow="tram rail_urban rail rail_electric rail_fast ship container cable_car subway aircraft wheelchair scooter drone" speed="8.33" length="19.80" shape="178.16,297.68 183.82,296.28 187.88,296.07 191.95,295.88 197.63,294.52"/>
        <lane id=":21660970_10_1" index="1" disallow="tram rail_urban rail rail_electric rail_fast ship container cable_car subway aircraft wheelchair scooter drone" speed="8.33" length="19.80" shape="179.19,300.71 184.85,299.31 188.90,299.11 192.96,298.91 198.64,297.56"/>
    </edge>
    <edge id=":21660970_12" function="internal">
        <lane id=":21660970_12_0" index="0" disallow="tram rail_urban rail rail_electric rail_fast ship container cable_car subway aircraft wheelchair scooter drone" speed="3.65" length="2.34" shape="180.22,303.74 181.62,304.11 182.25,304.74"/>
    </edge>
    <edge id=":21660970_13" function="internal">
        <lane id=":21660970_13_0" index="0" disallow="tram rail_urban rail rail_electric rail_fast ship container cable_car subway aircraft wheelchair scooter drone" speed="3.65" length="2.34" shape="182.25,304.74 182.13,305.62 181.25,306.77"/>
    </edge>
    <edge id=":21661018_0" function="internal">
        <lane id=":21661018_0_0" index="0" allow="bus bicycle" speed="6.68" length="7.79" shape="236.10,373.69 235.00,372.37 233.48,371.62 231.53,371.45 229.15,371.84"/>
        <lane id=":21661018_0_1" index="1" disallow="tram rail_urban rail rail_electric rail_fast ship container cable_car subway aircraft wheelchair scooter drone" speed="8.33" length="12.60" shape="238.91,372.15 237.09,369.92 234.63,368.64 231.52,368.30 227.75,368.90"/>
        <lane id=":21661018_0_2" index="2" disallow="tram rail_urban rail rail_electric rail_fast ship container cable_car subway aircraft wheelchair scooter drone" speed="8.33" length="14.89" shape="238.91,372.15 236.69,369.15 233.85,367.12 230.40,366.05 226.34,365.94"/>
    </edge>
    <edge id=":21661018_3" function="internal">
        <lane id=":21661018_3_0" index="0" disallow="tram rail_urban rail rail_electric rail_fast ship container cable_car subway aircraft wheelchair scooter drone" speed="3.65" length="4.67" shape="238.91,372.15 239.03,370.71 239.54,369.98 240.43,369.94 241.71,370.61"/>
    </edge>
    <edge id=":21661018_4" function="internal">
        <lane id=":21661018_4_0" index="0" disallow="tram rail_urban rail rail_electric rail_fast ship container cable_car subway aircraft wheelchair scooter drone" speed="6.94" length="8.06" shape="246.25,361.79 244.76,363.66 243.98,365.49 243.90,367.30 244.51,369.07"/>
        <lane id=":21661018_4_1" index="1" disallow="tram rail_urban rail rail_electric rail_fast ship container cable_car subway aircraft wheelchair scooter drone" speed="7.80" length="10.39" shape="246.25,361.79 243.71,364.65 242.11,367.08 241.45,369.06 241.71,370.61"/>
    </edge>
    <edge id=":21661018_6" function="internal">
        <lane id=":21661018_6_0" index="0" disallow="tram rail_urban rail rail_electric rail_fast ship container cable_car subway aircraft wheelchair scooter drone" speed="8.33" length="19.10" shape="246.25,361.79 242.01,366.00 238.70,368.53 234.89,370.21 229.15,371.84"/>
        <lane id=":21661018_6_1" index="1" disallow="tram rail_urban rail rail_electric rail_fast ship container cable_car subway aircraft wheelchair scooter drone" speed="8.33" length="19.10" shape="244.28,359.16 240.64,363.62 237.39,366.03 233.46,367.44 227.75,368.90"/>
        <lane id=":21661018_6_2" index="2" disallow="tram rail_urban rail rail_electric rail_fast ship container cable_car subway aircraft wheelchair scooter drone" speed="8.33" length="19.10" shape="242.28,356.47 238.95,360.30 235.18,363.16 230.98,365.04 226.34,365.94"/>
        <lane id=":21661018_6_3" index="3" disallow="tram rail_urban rail rail_electric rail_fast ship container cable_car subway aircraft wheelchair scooter drone" speed="8.33" length="19.10" shape="240.27,353.78 237.08,357.44 233.44,360.18 229.38,361.99 224.87,362.86"/>
        <lane id=":21661018_6_4" index="4" disallow="tram rail_urban rail rail_electric rail_fast ship container cable_car subway aircraft wheelchair scooter drone" speed="8.33" length="19.10" shape="238.27,351.09 235.21,354.59 231.71,357.21 227.77,358.93 223.40,359.77"/>
    </edge>
    <edge id=":21661060_0" function="internal">
        <lane id=":21661060_0_0" index="0" allow="bus bicycle" speed="8.33" length="6.12" shape="267.55,351.36 266.45,350.89 265.67,350.63 264.86,350.47 263.67,350.31"/>
        <lane id=":21661060_0_1" index="1" disallow="tram rail_urban rail rail_electric rail_fast ship container cable_car subway aircraft wheelchair scooter drone" speed="8.33" length="6.12" shape="268.84,348.43 267.18,347.69 265.99,347.24 264.76,347.06 262.95,347.11"/>
        <lane id=":21661060_0_2" index="2" disallow="tram rail_urban rail rail_electric rail_fast ship container cable_car subway aircraft wheelchair scooter drone" speed="8.33" length="6.12" shape="270.14,345.51 267.92,344.54 266.32,344.02 264.65,343.85 262.24,343.94"/>
    </edge>
    <edge id=":21661060_3" function="internal">
        <lane id=":21661060_3_0" index="0" disallow="tram rail_urban rail rail_electric rail_fast ship container cable_car subway aircraft wheelchair scooter drone" speed="3.65" length="1.44" shape="270.14,345.51 269.36,344.29"/>
    </edge>
    <edge id=":21661060_7" function="internal">
        <lane id=":21661060_7_0" index="0" disallow="tram rail_urban rail rail_electric rail_fast ship container cable_car subway aircraft wheelchair scooter drone" speed="3.65" length="3.23" shape="269.36,344.29 269.32,343.40 270.01,342.83 271.43,342.58"/>
    </edge>
    <edge id=":21661060_4" function="internal">
        <lane id=":21661060_4_0" index="0" allow="bus bicycle" speed="6.31" length="15.61" shape="271.08,338.85 273.22,341.13 271.65,343.76 267.77,346.00 262.95,347.11"/>
    </edge>
    <edge id=":21661060_5" function="internal">
        <lane id=":21661060_5_0" index="0" disallow="tram rail_urban rail rail_electric rail_fast ship container cable_car subway aircraft wheelchair scooter drone" speed="8.33" length="3.17" shape="268.56,341.26 271.43,342.58"/>
    </edge>
    <edge id=":21661060_6" function="internal">
        <lane id=":21661060_6_0" index="0" disallow="tram rail_urban rail rail_electric rail_fast ship container cable_car subway aircraft wheelchair scooter drone" speed="5.17" length="9.82" shape="268.56,341.26 269.95,342.17 269.36,342.93 266.79,343.52 262.24,343.94"/>
    </edge>
    <edge id=":21661061_0" function="internal">
        <lane id=":21661061_0_0" index="0" disallow="tram rail_urban rail rail_electric rail_fast ship container cable_car subway aircraft wheelchair scooter drone" speed="8.33" length="9.71" shape="254.83,352.52 252.74,353.67 251.47,354.73 250.43,356.05 249.04,358.03"/>
        <lane id=":21661061_0_1" index="1" disallow="tram rail_urban rail rail_electric rail_fast ship container cable_car subway aircraft wheelchair scooter drone" speed="8.33" length="9.71" shape="253.41,349.65 250.91,351.02 249.37,352.25 248.11,353.81 246.44,356.16"/>
        <lane id=":21661061_0_2" index="2" disallow="tram rail_urban rail rail_electric rail_fast ship container cable_car subway aircraft wheelchair scooter drone" speed="8.33" length="9.71" shape="251.98,346.79 249.08,348.37 247.27,349.78 245.78,351.57 243.84,354.29"/>
    </edge>
    <edge id=":21661061_3" function="internal">
        <lane id=":21661061_3_0" index="0" disallow="tram rail_urban rail rail_electric rail_fast ship container cable_car subway aircraft wheelchair scooter drone" speed="8.33" length="11.46" shape="247.86,342.64 248.18,346.84 248.63,349.88 248.33,352.68 246.44,356.16"/>
        <lane id=":21661061_3_1" index="1" disallow="tram rail_urban rail rail_electric rail_fast ship container cable_car subway aircraft wheelchair scooter drone" speed="8.33" length="11.46" shape="244.66,342.47 245.01,346.14 245.54,348.80 245.43,351.25 243.84,354.29"/>
        <lane id=":21661061_3_2" index="2" disallow="tram rail_urban rail rail_electric rail_fast ship container cable_car subway aircraft wheelchair scooter drone" speed="8.33" length="11.46" shape="241.46,342.30 241.83,345.44 242.45,347.72 242.53,349.82 241.25,352.42"/>
        <lane id=":21661061_3_3" index="3" disallow="tram rail_urban rail rail_electric rail_fast ship container cable_car subway aircraft wheelchair scooter drone" speed="8.33" length="11.46" shape="241.46,342.30 241.37,344.93 241.00,346.74 240.16,348.38 238.65,350.55"/>
    </edge>
    <edge id=":2698142503_0" function="internal">
        <lane id=":2698142503_0_0" index="0" disallow="tram rail_urban rail rail_electric rail_fast ship container cable_car subway aircraft wheelchair scooter drone" speed="8.33" length="7.45" shape="246.23,287.13 239.31,289.92"/>
        <lane id=":2698142503_0_1" index="1" disallow="tram rail_urban rail rail_electric rail_fast ship container cable_car subway aircraft wheelchair scooter drone" speed="8.33" length="7.45" shape="245.03,284.17 238.12,286.94"/>
    </edge>
    <edge id=":2698142503_2" function="internal">
        <lane id=":2698142503_2_0" index="0" allow="bus bicycle" speed="8.33" length="7.42" shape="234.56,278.03 241.44,275.26"/>
        <lane id=":2698142503_2_1" index="1" disallow="tram rail_urban rail rail_electric rail_fast ship container cable_car subway aircraft wheelchair scooter drone" speed="8.33" length="7.42" shape="235.74,281.00 242.63,278.23"/>
        <lane id=":2698142503_2_2" index="2" disallow="tram rail_urban rail rail_electric rail_fast ship container cable_car subway aircraft wheelchair scooter drone" speed="8.33" length="7.42" shape="236.93,283.97 243.83,281.20"/>
    </edge>
    <edge id=":2698142513_0" function="internal">
        <lane id=":2698142513_0_0" index="0" disallow="tram rail_urban rail rail_electric rail_fast ship container cable_car subway aircraft wheelchair scooter drone" speed="8.33" length="6.63" shape="199.28,278.62 200.70,280.04 201.64,281.05 202.54,282.09 203.83,283.63"/>
        <lane id=":2698142513_0_1" index="1" disallow="tram rail_urban rail rail_electric rail_fast ship container cable_car subway aircraft wheelchair scooter drone" speed="8.33" length="6.63" shape="197.03,280.90 198.39,282.26 199.29,283.22 200.15,284.23 201.39,285.70"/>
    </edge>
    <edge id=":2698142518_0" function="internal">
        <lane id=":2698142518_0_0" index="0" disallow="tram rail_urban rail rail_electric rail_fast ship container cable_car subway aircraft wheelchair scooter drone" speed="8.33" length="0.10" shape="463.63,165.32 463.68,165.29"/>
    </edge>
    <edge id=":2698142518_1" function="internal">
        <lane id=":2698142518_1_0" index="0" allow="bus bicycle" speed="8.33" length="0.12" shape="460.04,160.02 460.19,159.92"/>
        <lane id=":2698142518_1_1" index="1" disallow="tram rail_urban rail rail_electric rail_fast ship container cable_car subway aircraft wheelchair scooter drone" speed="8.33" length="0.12" shape="461.86,162.65 461.91,162.62"/>
    </edge>
    <edge id=":2698142534_0" function="internal">
        <lane id=":2698142534_0_0" index="0" disallow="tram rail_urban rail rail_electric rail_fast ship container cable_car subway aircraft wheelchair scooter drone" speed="8.33" length="5.45" shape="239.33,298.73 241.77,303.61"/>
        <lane id=":2698142534_0_1" index="1" disallow="tram rail_urban rail rail_electric rail_fast ship container cable_car subway aircraft wheelchair scooter drone" speed="8.33" length="5.45" shape="236.47,300.17 238.90,305.03"/>
    </edge>
    <edge id=":2698142546_0" function="internal">
        <lane id=":2698142546_0_0" index="0" allow="bicycle" speed="4.72" length="4.00" width="2.00" shape="257.96,351.85 257.17,352.30 256.71,353.01 256.56,353.99 256.74,355.23"/>
    </edge>
    <edge id=":2698142546_1" function="internal">
        <lane id=":2698142546_1_0" index="0" disallow="tram rail_urban rail rail_electric rail_fast ship container cable_car subway aircraft wheelchair scooter drone" speed="8.33" length="3.44" shape="257.77,351.29 256.93,351.57 256.36,351.78 255.81,352.03 255.01,352.43"/>
        <lane id=":2698142546_1_1" index="1" disallow="tram rail_urban rail rail_electric rail_fast ship container cable_car subway aircraft wheelchair scooter drone" speed="8.33" length="3.44" shape="256.76,348.25 255.80,348.57 255.14,348.82 254.50,349.11 253.59,349.56"/>
        <lane id=":2698142546_1_2" index="2" disallow="tram rail_urban rail rail_electric rail_fast ship container cable_car subway aircraft wheelchair scooter drone" speed="8.33" length="3.44" shape="255.76,345.21 254.66,345.58 253.92,345.86 253.20,346.18 252.16,346.70"/>
    </edge>
    <edge id=":2698142546_4" function="internal">
        <lane id=":2698142546_4_0" index="0" allow="bicycle" speed="5.56" length="10.29" width="2.00" shape="254.31,345.23 256.74,355.23"/>
    </edge>
    <edge id=":2698142546_5" function="internal">
        <lane id=":2698142546_5_0" index="0" allow="bicycle" speed="5.39" length="5.17" width="2.00" shape="254.31,345.23 254.66,347.09 254.69,348.52 254.43,349.53 253.85,350.10"/>
        <lane id=":2698142546_5_1" index="1" allow="bicycle" speed="4.22" length="2.95" width="2.00" shape="254.31,345.23 254.24,345.89 253.79,346.43 253.13,346.87 252.43,347.23"/>
    </edge>
    <edge id=":2698142574_0" function="internal">
        <lane id=":2698142574_0_0" index="0" allow="bicycle" speed="4.05" length="3.47" width="2.00" shape="259.33,330.17 258.84,331.35 258.67,332.26 258.81,332.90 259.28,333.28"/>
    </edge>
    <edge id=":2698142574_1" function="internal">
        <lane id=":2698142574_1_0" index="0" allow="bicycle" speed="5.56" length="7.75" width="2.00" shape="259.33,330.17 255.77,337.05"/>
    </edge>
    <edge id=":2698142574_2" function="internal">
        <lane id=":2698142574_2_0" index="0" allow="bus bicycle" speed="8.33" length="5.01" shape="255.75,331.11 256.55,332.14 257.15,332.81 257.89,333.32 259.06,333.84"/>
        <lane id=":2698142574_2_1" index="1" disallow="tram rail_urban rail rail_electric rail_fast ship container cable_car subway aircraft wheelchair scooter drone" speed="8.33" length="5.01" shape="253.51,333.44 254.56,334.74 255.38,335.56 256.36,336.17 257.88,336.82"/>
    </edge>
    <edge id=":2698142574_4" function="internal">
        <lane id=":2698142574_4_0" index="0" allow="bicycle" speed="5.53" length="4.36" width="2.00" shape="253.04,333.81 253.80,334.53 254.82,335.40 255.64,336.28 255.77,337.05"/>
    </edge>
    <edge id=":2698142579_0" function="internal">
        <lane id=":2698142579_0_0" index="0" disallow="tram rail_urban rail rail_electric rail_fast ship container cable_car subway aircraft wheelchair scooter drone" speed="8.33" length="3.32" shape="182.10,309.86 178.97,310.93"/>
        <lane id=":2698142579_0_1" index="1" disallow="tram rail_urban rail rail_electric rail_fast ship container cable_car subway aircraft wheelchair scooter drone" speed="8.33" length="3.32" shape="181.06,306.83 177.91,307.92"/>
    </edge>
    <edge id=":2698142579_2" function="internal">
        <lane id=":2698142579_2_0" index="0" allow="bus bicycle" speed="8.33" length="3.43" shape="173.64,295.85 176.94,294.72"/>
        <lane id=":2698142579_2_1" index="1" disallow="tram rail_urban rail rail_electric rail_fast ship container cable_car subway aircraft wheelchair scooter drone" speed="8.33" length="3.43" shape="174.70,298.86 177.97,297.75"/>
        <lane id=":2698142579_2_2" index="2" disallow="tram rail_urban rail rail_electric rail_fast ship container cable_car subway aircraft wheelchair scooter drone" speed="8.33" length="3.43" shape="175.77,301.88 179.00,300.77"/>
        <lane id=":2698142579_2_3" index="3" disallow="tram rail_urban rail rail_electric rail_fast ship container cable_car subway aircraft wheelchair scooter drone" speed="8.33" length="3.43" shape="176.84,304.90 180.03,303.80"/>
    </edge>
    <edge id=":27286712_0" function="internal">
        <lane id=":27286712_0_0" index="0" disallow="tram rail_urban rail rail_electric rail_fast ship container cable_car subway aircraft wheelchair scooter drone" speed="8.33" length="3.02" shape="95.47,89.09 94.13,86.37"/>
        <lane id=":27286712_0_1" index="1" disallow="tram rail_urban rail rail_electric rail_fast ship container cable_car subway aircraft wheelchair scooter drone" speed="8.33" length="3.02" shape="98.34,87.67 97.01,84.96"/>
    </edge>