<?xml version="1.0" encoding="UTF-8"?>

<!-- generated on 2024-09-03 01:38:06 by Eclipse SUMO netconvert Version 1.20.0
<configuration xmlns:xsi="http://www.w3.org/2001/XMLSchema-instance" xsi:noNamespaceSchemaLocation="http://sumo.dlr.de/xsd/netconvertConfiguration.xsd">

    <input>
        <osm-files value="train_files/intersection/middle/osm_files/map(14).osm"/>
    </input>

    <output>
        <output-file value="train_files/intersection/middle/outputs/map(14)_dict/map(14)/map(14).net.xml"/>
    </output>

    <projection>
        <proj.utm value="true"/>
    </projection>

    <building_defaults>
        <default.junctions.keep-clear value="false"/>
    </building_defaults>

</configuration>
-->

<net version="1.20" junctionCornerDetail="5" limitTurnSpeed="5.50" xmlns:xsi="http://www.w3.org/2001/XMLSchema-instance" xsi:noNamespaceSchemaLocation="http://sumo.dlr.de/xsd/net_file.xsd">

    <location netOffset="-440278.66,-5406273.82" convBoundary="0.00,0.00,400.07,227.24" origBoundary="2.186631,48.806603,2.221190,48.823161" projParameter="+proj=utm +zone=31 +ellps=WGS84 +datum=WGS84 +units=m +no_defs"/>

    <type id="highway.footway" priority="1" numLanes="1" speed="2.78" allow="pedestrian" oneway="1" width="2.00"/>
    <type id="highway.living_street" priority="2" numLanes="1" speed="2.78" disallow="tram rail_urban rail rail_electric rail_fast ship container cable_car subway aircraft wheelchair scooter drone" oneway="0"/>
    <type id="highway.secondary" priority="11" numLanes="1" speed="27.78" disallow="tram rail_urban rail rail_electric rail_fast ship container cable_car subway aircraft wheelchair scooter drone" oneway="0"/>

    <edge id=":196239384_0" function="internal">
        <lane id=":196239384_0_0" index="0" disallow="tram rail_urban rail rail_electric rail_fast ship container cable_car subway aircraft wheelchair scooter drone" speed="13.89" length="6.41" shape="80.87,77.27 75.47,73.82"/>
    </edge>
    <edge id=":196239388_0" function="internal">
        <lane id=":196239388_0_0" index="0" disallow="tram rail_urban rail rail_electric rail_fast ship container cable_car subway aircraft wheelchair scooter drone" speed="13.89" length="5.22" shape="93.54,62.29 93.71,67.50"/>
    </edge>
    <edge id=":196239391_0" function="internal">
        <lane id=":196239391_0_0" index="0" disallow="tram rail_urban rail rail_electric rail_fast ship container cable_car subway aircraft wheelchair scooter drone" speed="13.89" length="7.22" shape="92.76,96.74 91.96,103.92"/>
    </edge>
    <edge id=":196239466_0" function="internal">
        <lane id=":196239466_0_0" index="0" disallow="tram rail_urban rail rail_electric rail_fast ship container cable_car subway aircraft wheelchair scooter drone" speed="13.89" length="0.17" shape="83.81,99.66 83.80,99.83"/>
        <lane id=":196239466_0_1" index="1" disallow="tram rail_urban rail rail_electric rail_fast ship container cable_car subway aircraft wheelchair scooter drone" speed="13.89" length="0.17" shape="87.00,99.87 86.99,100.03"/>
    </edge>
    <edge id=":196239484_0" function="internal">
        <lane id=":196239484_0_0" index="0" disallow="tram rail_urban rail rail_electric rail_fast ship container cable_car subway aircraft wheelchair scooter drone" speed="13.89" length="7.26" shape="83.81,99.63 84.25,92.39"/>
        <lane id=":196239484_0_1" index="1" disallow="tram rail_urban rail rail_electric rail_fast ship container cable_car subway aircraft wheelchair scooter drone" speed="13.89" length="7.26" shape="87.01,99.83 87.45,92.58"/>
    </edge>
    <edge id=":196239488_0" function="internal">
        <lane id=":196239488_0_0" index="0" disallow="pedestrian tram rail_urban rail rail_electric rail_fast ship container cable_car subway aircraft wheelchair scooter drone" speed="20.83" length="9.92" shape="90.07,84.34 87.87,82.39 86.32,81.11 84.70,79.91 82.27,78.24"/>
    </edge>
    <edge id=":196239488_1" function="internal">
        <lane id=":196239488_1_0" index="0" disallow="pedestrian tram rail_urban rail rail_electric rail_fast ship container cable_car subway aircraft wheelchair scooter drone" speed="8.90" length="8.52" shape="90.07,84.34 88.52,82.67 87.44,80.87 86.84,78.92 86.70,76.83"/>
    </edge>
    <edge id=":196239488_2" function="internal">
        <lane id=":196239488_2_0" index="0" disallow="tram rail_urban rail rail_electric rail_fast ship container cable_car subway aircraft wheelchair scooter drone" speed="8.85" length="10.24" shape="84.51,87.89 84.54,84.36 84.17,81.57 83.42,79.53 82.27,78.24"/>
    </edge>
    <edge id=":196239488_3" function="internal">
        <lane id=":196239488_3_0" index="0" disallow="pedestrian tram rail_urban rail rail_electric rail_fast ship container cable_car subway aircraft wheelchair scooter drone" speed="13.89" length="11.32" shape="87.71,88.07 87.65,84.64 87.24,82.21 86.80,79.90 86.70,76.83"/>
    </edge>
    <edge id=":196239494_0" function="internal">
        <lane id=":196239494_0_0" index="0" disallow="tram rail_urban rail rail_electric rail_fast ship container cable_car subway aircraft wheelchair scooter drone" speed="5.72" length="9.19" shape="99.05,92.93 96.57,91.77 94.71,91.88 93.47,93.27 92.84,95.93"/>
    </edge>
    <edge id=":196239494_1" function="internal">
        <lane id=":196239494_1_0" index="0" disallow="pedestrian tram rail_urban rail rail_electric rail_fast ship container cable_car subway aircraft wheelchair scooter drone" speed="20.83" length="12.07" shape="100.78,90.24 97.52,88.43 95.01,87.39 92.74,86.33 90.22,84.48"/>
    </edge>
    <edge id=":196239494_2" function="internal">
        <lane id=":196239494_2_0" index="0" disallow="tram rail_urban rail rail_electric rail_fast ship container cable_car subway aircraft wheelchair scooter drone" speed="13.89" length="14.51" shape="93.86,81.45 92.84,95.93"/>
    </edge>
    <edge id=":196239494_3" function="internal">
        <lane id=":196239494_3_0" index="0" disallow="pedestrian tram rail_urban rail rail_electric rail_fast ship container cable_car subway aircraft wheelchair scooter drone" speed="4.84" length="6.92" shape="93.86,81.45 93.56,83.93 92.85,85.26 91.74,85.44 90.22,84.48"/>
    </edge>
    <edge id=":196239507_0" function="internal">
        <lane id=":196239507_0_0" index="0" disallow="tram rail_urban rail rail_electric rail_fast ship container cable_car subway aircraft wheelchair scooter drone" speed="13.89" length="5.91" shape="87.12,65.44 87.47,59.55"/>
    </edge>
    <edge id=":196239516_0" function="internal">
        <lane id=":196239516_0_0" index="0" disallow="tram rail_urban rail rail_electric rail_fast ship container cable_car subway aircraft wheelchair scooter drone" speed="13.89" length="0.34" shape="30.77,47.78 30.47,47.62"/>
    </edge>
    <edge id=":196239516_1" function="internal">
        <lane id=":196239516_1_0" index="0" disallow="tram rail_urban rail rail_electric rail_fast ship container cable_car subway aircraft wheelchair scooter drone" speed="13.89" length="0.10" shape="32.26,44.96 32.34,45.01"/>
    </edge>
    <edge id=":196239520_0" function="internal">
        <lane id=":196239520_0_0" index="0" disallow="tram rail_urban rail rail_electric rail_fast ship container cable_car subway aircraft wheelchair scooter drone" speed="13.89" length="6.24" shape="75.81,65.76 77.44,66.64 78.57,67.23 79.72,67.75 81.43,68.46"/>
    </edge>
    <edge id=":196239523_0" function="internal">
        <lane id=":196239523_0_0" index="0" disallow="tram rail_urban rail rail_electric rail_fast ship container cable_car subway aircraft wheelchair scooter drone" speed="5.50" length="7.84" shape="81.62,68.53 83.98,69.16 85.68,68.89 86.72,67.72 87.11,65.64"/>
    </edge>
    <edge id=":196239523_1" function="internal">
        <lane id=":196239523_1_0" index="0" disallow="pedestrian tram rail_urban rail rail_electric rail_fast ship container cable_car subway aircraft wheelchair scooter drone" speed="13.89" length="10.80" shape="81.62,68.53 84.49,69.70 86.59,70.65 88.61,71.76 91.25,73.37"/>
    </edge>
    <edge id=":196239523_2" function="internal">
        <lane id=":196239523_2_0" index="0" disallow="pedestrian tram rail_urban rail rail_electric rail_fast ship container cable_car subway aircraft wheelchair scooter drone" speed="13.89" length="10.99" shape="86.71,76.63 87.11,65.64"/>
    </edge>
    <edge id=":196239523_3" function="internal">
        <lane id=":196239523_3_0" index="0" disallow="pedestrian tram rail_urban rail rail_electric rail_fast ship container cable_car subway aircraft wheelchair scooter drone" speed="5.21" length="3.40" shape="86.71,76.63 87.10,74.20 87.61,73.41"/>
    </edge>
    <edge id=":196239523_4" function="internal">
        <lane id=":196239523_4_0" index="0" disallow="pedestrian tram rail_urban rail rail_electric rail_fast ship container cable_car subway aircraft wheelchair scooter drone" speed="5.21" length="4.13" shape="87.61,73.41 87.98,72.85 89.37,72.57 91.25,73.37"/>
    </edge>
    <edge id=":196239528_0" function="internal">
        <lane id=":196239528_0_0" index="0" disallow="tram rail_urban rail rail_electric rail_fast ship container cable_car subway aircraft wheelchair scooter drone" speed="9.66" length="9.29" shape="93.84,70.31 94.18,72.63 94.98,74.74 96.23,76.64 97.95,78.34"/>
    </edge>
    <edge id=":196239528_1" function="internal">
        <lane id=":196239528_1_0" index="0" disallow="tram rail_urban rail rail_electric rail_fast ship container cable_car subway aircraft wheelchair scooter drone" speed="13.89" length="10.94" shape="93.84,70.31 93.87,81.25"/>
    </edge>
    <edge id=":196239528_2" function="internal">
        <lane id=":196239528_2_0" index="0" disallow="pedestrian tram rail_urban rail rail_electric rail_fast ship container cable_car subway aircraft wheelchair scooter drone" speed="13.89" length="8.15" shape="91.42,73.48 93.45,74.79 94.79,75.76 96.08,76.80 97.95,78.34"/>
    </edge>
    <edge id=":196239528_3" function="internal">
        <lane id=":196239528_3_0" index="0" disallow="pedestrian tram rail_urban rail rail_electric rail_fast ship container cable_car subway aircraft wheelchair scooter drone" speed="8.01" length="0.29" shape="91.42,73.48 91.62,73.68"/>
    </edge>
    <edge id=":196239528_4" function="internal">
        <lane id=":196239528_4_0" index="0" disallow="pedestrian tram rail_urban rail rail_electric rail_fast ship container cable_car subway aircraft wheelchair scooter drone" speed="8.01" length="8.19" shape="91.62,73.68 92.56,74.59 93.35,76.26 93.79,78.48 93.87,81.25"/>
    </edge>
    <edge id=":196239531_0" function="internal">
        <lane id=":196239531_0_0" index="0" disallow="tram rail_urban rail rail_electric rail_fast ship container cable_car subway aircraft wheelchair scooter drone" speed="13.89" length="4.55" shape="104.82,83.99 105.86,84.86 106.57,85.46 107.31,86.01 108.44,86.74"/>
    </edge>
    <edge id=":196239538_0" function="internal">
        <lane id=":196239538_0_0" index="0" disallow="tram rail_urban rail rail_electric rail_fast ship container cable_car subway aircraft wheelchair scooter drone" speed="13.89" length="1.58" shape="105.86,97.00 107.32,97.87"/>
        <lane id=":196239538_0_1" index="1" disallow="tram rail_urban rail rail_electric rail_fast ship container cable_car subway aircraft wheelchair scooter drone" speed="13.89" length="1.58" shape="107.52,94.27 108.77,95.01"/>
    </edge>
    <edge id=":196239543_0" function="internal">
        <lane id=":196239543_0_0" index="0" disallow="tram rail_urban rail rail_electric rail_fast ship container cable_car subway aircraft wheelchair scooter drone" speed="13.89" length="0.26" shape="113.85,101.32 113.55,101.18"/>
        <lane id=":196239543_0_1" index="1" disallow="tram rail_urban rail rail_electric rail_fast ship container cable_car subway aircraft wheelchair scooter drone" speed="13.89" length="0.26" shape="115.14,98.39 114.97,98.31"/>
    </edge>
    <edge id=":196239547_0" function="internal">
        <lane id=":196239547_0_0" index="0" disallow="tram rail_urban rail rail_electric rail_fast ship container cable_car subway aircraft wheelchair scooter drone" speed="13.89" length="0.30" shape="93.48,59.21 93.49,59.51"/>
    </edge>
    <edge id=":196239553_0" function="internal">
        <lane id=":196239553_0_0" index="0" disallow="tram rail_urban rail rail_electric rail_fast ship container cable_car subway aircraft wheelchair scooter drone" speed="13.89" length="0.21" shape="75.50,65.62 75.56,65.64 75.60,65.65 75.63,65.67 75.69,65.70"/>
    </edge>
    <edge id=":199111344_0" function="internal">
        <lane id=":199111344_0_0" index="0" disallow="tram rail_urban rail rail_electric rail_fast ship container cable_car subway aircraft wheelchair scooter drone" speed="7.16" length="9.28" shape="116.68,86.14 116.19,88.39 116.53,90.46 117.71,92.36 119.72,94.08"/>
    </edge>
    <edge id=":199111344_1" function="internal">
        <lane id=":199111344_1_0" index="0" disallow="tram rail_urban rail rail_electric rail_fast ship container cable_car subway aircraft wheelchair scooter drone" speed="5.56" length="9.43" shape="116.68,86.14 112.98,94.81"/>
    </edge>
    <edge id=":199111344_2" function="internal">
        <lane id=":199111344_2_0" index="0" disallow="tram rail_urban rail rail_electric rail_fast ship container cable_car subway aircraft wheelchair scooter drone" speed="3.65" length="4.67" shape="116.68,86.14 115.50,86.97 114.61,87.05 114.01,86.39 113.70,84.98"/>
    </edge>
    <edge id=":199111344_3" function="internal">
        <lane id=":199111344_3_0" index="0" disallow="tram rail_urban rail rail_electric rail_fast ship container cable_car subway aircraft wheelchair scooter drone" speed="5.31" length="6.49" shape="108.61,86.85 110.25,87.56 111.64,87.48 112.79,86.62 113.70,84.98"/>
    </edge>
    <edge id=":199111344_4" function="internal">
        <lane id=":199111344_4_0" index="0" disallow="tram rail_urban rail rail_electric rail_fast ship container cable_car subway aircraft wheelchair scooter drone" speed="13.89" length="13.26" shape="108.61,86.85 119.72,94.08"/>
    </edge>
    <edge id=":199111344_5" function="internal">
        <lane id=":199111344_5_0" index="0" disallow="tram rail_urban rail rail_electric rail_fast ship container cable_car subway aircraft wheelchair scooter drone" speed="7.11" length="9.97" shape="108.61,86.85 111.23,88.81 112.83,90.80 113.42,92.80 112.98,94.81"/>
    </edge>
    <edge id=":199111344_6" function="internal">
        <lane id=":199111344_6_0" index="0" disallow="tram rail_urban rail rail_electric rail_fast ship container cable_car subway aircraft wheelchair scooter drone" speed="5.56" length="9.22" shape="110.08,93.46 113.70,84.98"/>
    </edge>
    <edge id=":199111344_7" function="internal">
        <lane id=":199111344_7_0" index="0" disallow="tram rail_urban rail rail_electric rail_fast ship container cable_car subway aircraft wheelchair scooter drone" speed="6.78" length="11.05" shape="110.08,93.46 111.46,91.83 113.53,91.39 116.28,92.14 119.72,94.08"/>
    </edge>
    <edge id=":199111344_8" function="internal">
        <lane id=":199111344_8_0" index="0" disallow="tram rail_urban rail rail_electric rail_fast ship container cable_car subway aircraft wheelchair scooter drone" speed="3.65" length="4.67" shape="110.08,93.46 111.31,92.71 112.21,92.68 112.76,93.39 112.98,94.81"/>
    </edge>
    <edge id=":199111346_0" function="internal">
        <lane id=":199111346_0_0" index="0" disallow="tram rail_urban rail rail_electric rail_fast ship container cable_car subway aircraft wheelchair scooter drone" speed="13.89" length="8.20" shape="113.35,101.08 111.13,99.99 109.62,99.21 108.15,98.38 106.03,97.11"/>
        <lane id=":199111346_0_1" index="1" disallow="tram rail_urban rail rail_electric rail_fast ship container cable_car subway aircraft wheelchair scooter drone" speed="13.89" length="8.20" shape="114.77,98.21 112.62,97.15 111.16,96.41 109.74,95.61 107.69,94.37"/>
    </edge>
    <edge id=":199111346_2" function="internal">
        <lane id=":199111346_2_0" index="0" disallow="tram rail_urban rail rail_electric rail_fast ship container cable_car subway aircraft wheelchair scooter drone" speed="5.88" length="7.05" shape="114.77,98.21 112.37,96.89 110.77,95.68 109.98,94.60 110.00,93.64"/>
    </edge>
    <edge id=":199111346_3" function="internal">
        <lane id=":199111346_3_0" index="0" disallow="tram rail_urban rail rail_electric rail_fast ship container cable_car subway aircraft wheelchair scooter drone" speed="5.20" length="5.84" shape="112.90,94.99 112.22,95.70 111.13,95.83 109.62,95.39 107.69,94.37"/>
    </edge>
    <edge id=":199111346_4" function="internal">
        <lane id=":199111346_4_0" index="0" disallow="tram rail_urban rail rail_electric rail_fast ship container cable_car subway aircraft wheelchair scooter drone" speed="3.65" length="4.67" shape="112.90,94.99 111.66,95.74 110.77,95.77 110.21,95.06 110.00,93.64"/>
    </edge>
    <edge id=":199111516_0" function="internal">
        <lane id=":199111516_0_0" index="0" disallow="tram rail_urban rail rail_electric rail_fast ship container cable_car subway aircraft wheelchair scooter drone" speed="3.65" length="4.67" shape="400.46,134.48 401.43,135.55 401.62,136.42 401.04,137.10 399.68,137.58"/>
    </edge>
    <edge id=":3224733406_0" function="internal">
        <lane id=":3224733406_0_0" index="0" disallow="tram rail_urban rail rail_electric rail_fast ship container cable_car subway aircraft wheelchair scooter drone" speed="5.56" length="5.75" shape="114.07,84.06 115.00,82.96 116.22,82.87 117.64,82.91 119.16,82.23"/>
    </edge>
    <edge id=":3224733406_1" function="internal">
        <lane id=":3224733406_1_0" index="0" disallow="tram rail_urban rail rail_electric rail_fast ship container cable_car subway aircraft wheelchair scooter drone" speed="3.65" length="4.67" shape="114.07,84.06 115.25,83.23 116.14,83.15 116.74,83.82 117.05,85.23"/>
    </edge>
    <edge id=":4992219571_0" function="internal">
        <lane id=":4992219571_0_0" index="0" disallow="tram rail_urban rail rail_electric rail_fast ship container cable_car subway aircraft wheelchair scooter drone" speed="5.56" length="1.28" shape="116.29,87.15 116.76,85.95"/>
    </edge>
    <edge id=":4992219571_1" function="internal">
        <lane id=":4992219571_1_0" index="0" disallow="tram rail_urban rail rail_electric rail_fast ship container cable_car subway aircraft wheelchair scooter drone" speed="5.56" length="1.27" shape="113.77,84.79 113.31,85.98"/>
    </edge>
    <edge id=":58794384_0" function="internal">
        <lane id=":58794384_0_0" index="0" disallow="tram rail_urban rail rail_electric rail_fast ship container cable_car subway aircraft wheelchair scooter drone" speed="13.89" length="9.64" shape="149.76,109.92 146.77,109.76 144.63,110.23 142.57,110.48 139.81,109.67"/>
        <lane id=":58794384_0_1" index="1" disallow="tram rail_urban rail rail_electric rail_fast ship container cable_car subway aircraft wheelchair scooter drone" speed="13.89" length="9.64" shape="149.76,109.92 147.11,109.32 145.34,108.76 143.64,107.99 141.20,106.79"/>
    </edge>
    <edge id=":58794384_2" function="internal">
        <lane id=":58794384_2_0" index="0" disallow="tram rail_urban rail rail_electric rail_fast ship container cable_car subway aircraft wheelchair scooter drone" speed="13.89" length="8.39" shape="142.41,104.31 144.70,105.26 146.31,105.84 147.96,106.27 150.39,106.78"/>
    </edge>
    <edge id=":96536506_0" function="internal">
        <lane id=":96536506_0_0" index="0" disallow="tram rail_urban rail rail_electric rail_fast ship container cable_car subway aircraft wheelchair scooter drone" speed="3.65" length="4.67" shape="-0.89,26.51 -1.44,25.18 -1.33,24.29 -0.55,23.85 0.89,23.85"/>
    </edge>
    <edge id=":96536524_0" function="internal">
        <lane id=":96536524_0_0" index="0" disallow="tram rail_urban rail rail_electric rail_fast ship container cable_car subway aircraft wheelchair scooter drone" speed="13.89" length="6.59" shape="107.15,97.78 105.36,96.87 104.16,96.20 103.00,95.47 101.31,94.38"/>
        <lane id=":96536524_0_1" index="1" disallow="tram rail_urban rail rail_electric rail_fast ship container cable_car subway aircraft wheelchair scooter drone" speed="13.89" length="6.59" shape="108.59,94.92 106.89,94.05 105.75,93.42 104.65,92.73 103.05,91.69"/>
    </edge>
    <edge id=":9665775722_0" function="internal">
        <lane id=":9665775722_0_0" index="0" disallow="tram rail_urban rail rail_electric rail_fast ship container cable_car subway aircraft wheelchair scooter drone" speed="13.89" length="0.30" shape="352.77,125.45 352.49,125.38"/>
    </edge>
    <edge id=":9665775722_1" function="internal">
        <lane id=":9665775722_1_0" index="0" disallow="tram rail_urban rail rail_electric rail_fast ship container cable_car subway aircraft wheelchair scooter drone" speed="13.89" length="0.30" shape="353.29,122.28 353.58,122.36"/>
    </edge>

    <edge id="-18957976" from="96536506" to="196239516" priority="11" type="highway.secondary">
        <lane id="-18957976_0" index="0" disallow="tram rail_urban rail rail_electric rail_fast ship container cable_car subway aircraft wheelchair scooter drone" speed="13.89" length="37.81" shape="0.89,23.85 32.26,44.96"/>
        <param key="ref" value="D 181"/>
    </edge>
    <edge id="-19195750#0" from="9665775722" to="199111516" priority="11" type="highway.secondary" shape="353.03,123.87 388.89,133.24 400.07,136.03">
        <lane id="-19195750#0_0" index="0" disallow="tram rail_urban rail rail_electric rail_fast ship container cable_car subway aircraft wheelchair scooter drone" speed="13.89" length="48.42" shape="353.58,122.36 389.29,131.69 400.46,134.48"/>
        <param key="ref" value="D 181"/>
    </edge>
    <edge id="-19195750#1" from="58794384" to="9665775722" priority="11" type="highway.secondary" shape="145.97,107.52 158.34,110.03 167.10,111.55 196.50,113.59 291.79,113.80 314.15,115.33 350.51,123.22 353.03,123.87">
        <lane id="-19195750#1_0" index="0" disallow="tram rail_urban rail rail_electric rail_fast ship container cable_car subway aircraft wheelchair scooter drone" speed="13.89" length="204.24" shape="150.39,106.78 158.64,108.46 167.30,109.96 196.56,111.99 291.85,112.20 314.37,113.74 350.88,121.66 353.29,122.28"/>
        <param key="ref" value="D 181"/>
    </edge>
    <edge id="-509430312#0" from="4992219571" to="3224733406" priority="2" type="highway.living_street">
        <lane id="-509430312#0_0" index="0" disallow="tram rail_urban rail rail_electric rail_fast ship container cable_car subway aircraft wheelchair scooter drone" speed="5.56" length="2.06" shape="113.31,85.98 114.07,84.06"/>
    </edge>
    <edge id="-509430312#1" from="199111344" to="4992219571" priority="2" type="highway.living_street">
        <lane id="-509430312#1_0" index="0" disallow="tram rail_urban rail rail_electric rail_fast ship container cable_car subway aircraft wheelchair scooter drone" speed="5.56" length="0.20" shape="113.70,84.98 113.77,84.79"/>
    </edge>
    <edge id="-509430312#2" from="199111346" to="199111344" priority="2" type="highway.living_street">
        <lane id="-509430312#2_0" index="0" disallow="tram rail_urban rail rail_electric rail_fast ship container cable_car subway aircraft wheelchair scooter drone" speed="5.56" length="0.20" shape="110.00,93.64 110.08,93.46"/>
    </edge>
    <edge id="10865062#0" from="58794384" to="196239543" priority="11" type="highway.secondary" spreadType="center" shape="145.60,110.69 136.80,106.43 119.61,102.10 114.37,99.80">
        <lane id="10865062#0_0" index="0" disallow="tram rail_urban rail rail_electric rail_fast ship container cable_car subway aircraft wheelchair scooter drone" speed="13.89" length="27.43" shape="139.81,109.67 136.25,107.95 119.09,103.62 113.85,101.32"/>
        <lane id="10865062#0_1" index="1" disallow="tram rail_urban rail rail_electric rail_fast ship container cable_car subway aircraft wheelchair scooter drone" speed="13.89" length="27.43" shape="141.20,106.79 137.35,104.92 120.13,100.59 115.14,98.39"/>
        <param key="ref" value="D 181"/>
    </edge>
    <edge id="10865062#1" from="196239543" to="199111346" priority="11" type="highway.secondary" spreadType="center">
        <lane id="10865062#1_0" index="0" disallow="tram rail_urban rail rail_electric rail_fast ship container cable_car subway aircraft wheelchair scooter drone" speed="13.89" length="0.22" shape="113.55,101.18 113.35,101.08"/>
        <lane id="10865062#1_1" index="1" disallow="tram rail_urban rail rail_electric rail_fast ship container cable_car subway aircraft wheelchair scooter drone" speed="13.89" length="0.22" shape="114.97,98.31 114.77,98.21"/>
        <param key="ref" value="D 181"/>
    </edge>
    <edge id="10865062#2" from="199111346" to="196239538" priority="11" type="highway.secondary" spreadType="center" shape="109.91,97.59 108.39,96.68 107.84,96.34">
        <lane id="10865062#2_0" index="0" disallow="tram rail_urban rail rail_electric rail_fast ship container cable_car subway aircraft wheelchair scooter drone" speed="13.89" length="0.20" shape="106.03,97.11 105.86,97.00"/>
        <lane id="10865062#2_1" index="1" disallow="tram rail_urban rail rail_electric rail_fast ship container cable_car subway aircraft wheelchair scooter drone" speed="13.89" length="0.20" shape="107.69,94.37 107.52,94.27"/>
        <param key="ref" value="D 181"/>
    </edge>
    <edge id="10865062#3" from="196239538" to="96536524" priority="11" type="highway.secondary" spreadType="center">
        <lane id="10865062#3_0" index="0" disallow="tram rail_urban rail rail_electric rail_fast ship container cable_car subway aircraft wheelchair scooter drone" speed="13.89" length="0.20" shape="107.32,97.87 107.15,97.78"/>
        <lane id="10865062#3_1" index="1" disallow="tram rail_urban rail rail_electric rail_fast ship container cable_car subway aircraft wheelchair scooter drone" speed="13.89" length="0.20" shape="108.77,95.01 108.59,94.92"/>
        <param key="ref" value="D 181"/>
    </edge>
    <edge id="10865062#4" from="96536524" to="196239494" priority="11" type="highway.secondary" spreadType="center">
        <lane id="10865062#4_0" index="0" disallow="tram rail_urban rail rail_electric rail_fast ship container cable_car subway aircraft wheelchair scooter drone" speed="13.89" length="2.69" shape="101.31,94.38 99.05,92.93"/>
        <lane id="10865062#4_1" index="1" disallow="tram rail_urban rail rail_electric rail_fast ship container cable_car subway aircraft wheelchair scooter drone" speed="13.89" length="2.69" shape="103.05,91.69 100.78,90.24"/>
        <param key="ref" value="D 181"/>
    </edge>
    <edge id="1109631297" from="196239520" to="196239507" priority="1" type="highway.footway" spreadType="center" shape="79.11,67.53 78.55,61.34 82.22,59.29 87.17,63.38">
        <lane id="1109631297_0" index="0" allow="pedestrian" speed="2.78" length="8.61" width="2.00" shape="78.74,63.47 78.55,61.34 82.22,59.29 83.96,60.73"/>
    </edge>
    <edge id="1109631298" from="196239484" to="196239384" priority="1" type="highway.footway" spreadType="center" shape="85.67,95.68 80.67,94.32 81.14,87.73 79.37,83.62 76.78,80.60 78.36,75.54">
        <lane id="1109631298_0" index="0" allow="pedestrian" speed="2.78" length="17.26" width="2.00" shape="81.05,94.42 80.67,94.32 81.14,87.73 79.37,83.62 76.78,80.60 77.32,78.87"/>
    </edge>
    <edge id="1109631299" from="96536524" to="196239391" priority="1" type="highway.footway" spreadType="center" shape="105.36,95.09 103.64,101.39 97.92,104.83 92.41,100.23">
        <lane id="1109631299_0" index="0" allow="pedestrian" speed="2.78" length="11.36" width="2.00" shape="104.05,99.88 103.64,101.39 97.92,104.83 95.52,102.82"/>
    </edge>
    <edge id="1109631300" from="196239388" to="196239531" priority="1" type="highway.footway" spreadType="center" shape="93.59,64.92 98.24,64.96 98.44,70.41 103.15,77.97 106.04,81.72 108.18,83.32 107.29,86.03">
        <lane id="1109631300_0" index="0" allow="pedestrian" speed="2.78" length="22.49" width="2.00" shape="96.75,64.94 98.24,64.96 98.44,70.41 103.15,77.97 106.04,81.72 107.57,82.86"/>
    </edge>
    <edge id="1109631301" from="196239507" to="196239388" priority="1" type="highway.footway" spreadType="center" shape="87.17,63.38 89.91,64.70 93.59,64.92">
        <lane id="1109631301_0" index="0" allow="pedestrian" speed="2.78" length="0.16" width="2.00" shape="90.42,64.73 90.57,64.74"/>
    </edge>
    <edge id="1109631302" from="196239384" to="196239520" priority="1" type="highway.footway" spreadType="center">
        <lane id="1109631302_0" index="0" allow="pedestrian" speed="2.78" length="0.84" width="2.00" shape="78.71,71.81 78.79,70.98"/>
    </edge>
    <edge id="1109631303" from="196239484" to="196239391" priority="1" type="highway.footway" spreadType="center">
        <lane id="1109631303_0" index="0" allow="pedestrian" speed="2.78" length="0.20" width="2.00" shape="89.76,98.44 89.93,98.55"/>
    </edge>
    <edge id="1109631304" from="196239531" to="96536524" priority="1" type="highway.footway" spreadType="center">
        <lane id="1109631304_0" index="0" allow="pedestrian" speed="2.78" length="0.40" width="2.00" shape="106.55,89.51 106.47,89.90"/>
    </edge>
    <edge id="18776080#0" from="196239499" to="196239547" priority="11" type="highway.secondary" spreadType="center" shape="93.42,18.32 93.11,37.25 93.46,57.69 93.48,59.36">
        <lane id="18776080#0_0" index="0" disallow="tram rail_urban rail rail_electric rail_fast ship container cable_car subway aircraft wheelchair scooter drone" speed="13.89" length="40.76" shape="93.42,18.46 93.11,37.25 93.46,57.69 93.48,59.21"/>
        <param key="ref" value="D 53"/>
    </edge>
    <edge id="18776080#1" from="196239547" to="196239388" priority="11" type="highway.secondary" spreadType="center">