<?xml version="1.0" encoding="UTF-8"?>

<!-- generated on 2024-09-03 01:37:13 by Eclipse SUMO netconvert Version 1.20.0
<configuration xmlns:xsi="http://www.w3.org/2001/XMLSchema-instance" xsi:noNamespaceSchemaLocation="http://sumo.dlr.de/xsd/netconvertConfiguration.xsd">

    <input>
        <osm-files value="train_files/intersection/easy/osm_files/map(93).osm"/>
    </input>

    <output>
        <output-file value="train_files/intersection/easy/outputs/map(93)_dict/map(93)/map(93).net.xml"/>
    </output>

    <projection>
        <proj.utm value="true"/>
    </projection>

    <building_defaults>
        <default.junctions.keep-clear value="false"/>
    </building_defaults>

</configuration>
-->

<net version="1.20" junctionCornerDetail="5" limitTurnSpeed="5.50" xmlns:xsi="http://www.w3.org/2001/XMLSchema-instance" xsi:noNamespaceSchemaLocation="http://sumo.dlr.de/xsd/net_file.xsd">

    <location netOffset="-540763.64,-5968368.74" convBoundary="0.00,0.00,3603.30,2529.57" origBoundary="27.620170,53.861909,27.674620,53.884939" projParameter="+proj=utm +zone=35 +ellps=WGS84 +datum=WGS84 +units=m +no_defs"/>

    <type id="highway.footway" priority="1" numLanes="1" speed="2.78" allow="pedestrian" oneway="1" width="2.00"/>
    <type id="highway.primary" priority="12" numLanes="2" speed="27.78" disallow="tram rail_urban rail rail_electric rail_fast ship container cable_car subway aircraft wheelchair scooter drone" oneway="0"/>
    <type id="highway.steps" priority="1" numLanes="1" speed="1.39" allow="pedestrian" oneway="1" width="2.00"/>
    <type id="railway.subway" priority="18" numLanes="1" speed="27.78" allow="subway" oneway="1"/>

    <edge id=":275053957_0" function="internal">
        <lane id=":275053957_0_0" index="0" disallow="pedestrian tram rail_urban rail rail_electric rail_fast ship container cable_car subway aircraft wheelchair scooter drone" speed="6.89" length="10.81" shape="1805.79,828.66 1802.83,830.40 1801.09,832.36 1800.60,834.54 1801.34,836.95"/>
    </edge>
    <edge id=":275053957_1" function="internal">
        <lane id=":275053957_1_0" index="0" disallow="pedestrian tram rail_urban rail rail_electric rail_fast ship container cable_car subway aircraft wheelchair scooter drone" speed="16.67" length="17.11" shape="1805.79,828.66 1790.36,835.80"/>
        <lane id=":275053957_1_1" index="1" disallow="pedestrian tram rail_urban rail rail_electric rail_fast ship container cable_car subway aircraft wheelchair scooter drone" speed="16.67" length="17.11" shape="1804.47,825.75 1788.99,832.90"/>
        <lane id=":275053957_1_2" index="2" disallow="pedestrian tram rail_urban rail rail_electric rail_fast ship container cable_car subway aircraft wheelchair scooter drone" speed="16.67" length="17.11" shape="1803.15,822.84 1787.62,830.01"/>
        <lane id=":275053957_1_3" index="3" disallow="pedestrian tram rail_urban rail rail_electric rail_fast ship container cable_car subway aircraft wheelchair scooter drone" speed="16.67" length="17.11" shape="1801.83,819.92 1786.25,827.12"/>
        <lane id=":275053957_1_4" index="4" disallow="pedestrian tram rail_urban rail rail_electric rail_fast ship container cable_car subway aircraft wheelchair scooter drone" speed="16.67" length="17.11" shape="1800.51,817.01 1784.88,824.23"/>
    </edge>
    <edge id=":275053957_6" function="internal">
        <lane id=":275053957_6_0" index="0" disallow="pedestrian tram rail_urban rail rail_electric rail_fast ship container cable_car subway aircraft wheelchair scooter drone" speed="16.67" length="20.63" shape="1794.58,817.56 1796.99,823.18 1797.98,827.36 1798.95,831.48 1801.34,836.95"/>
        <lane id=":275053957_6_1" index="1" disallow="pedestrian tram rail_urban rail rail_electric rail_fast ship container cable_car subway aircraft wheelchair scooter drone" speed="16.67" length="20.63" shape="1791.75,819.05 1794.17,824.68 1795.16,828.87 1796.13,833.00 1798.52,838.47"/>
    </edge>
    <edge id=":275053957_8" function="internal">
        <lane id=":275053957_8_0" index="0" disallow="pedestrian tram rail_urban rail rail_electric rail_fast ship container cable_car subway aircraft wheelchair scooter drone" speed="6.98" length="10.89" shape="1788.92,820.55 1790.24,823.79 1790.47,826.45 1789.59,828.52 1787.62,830.01"/>
        <lane id=":275053957_8_1" index="1" disallow="pedestrian tram rail_urban rail rail_electric rail_fast ship container cable_car subway aircraft wheelchair scooter drone" speed="5.23" length="5.64" shape="1786.09,822.04 1786.92,823.90 1787.22,825.37 1787.00,826.44 1786.25,827.12"/>
        <lane id=":275053957_8_2" index="2" disallow="pedestrian tram rail_urban rail rail_electric rail_fast ship container cable_car subway aircraft wheelchair scooter drone" speed="4.00" length="2.85" shape="1786.09,822.04 1786.27,822.66 1786.13,823.23 1785.67,823.76 1784.88,824.23"/>
    </edge>
    <edge id=":275053960_0" function="internal">
        <lane id=":275053960_0_0" index="0" disallow="pedestrian tram rail_urban rail rail_electric rail_fast ship container cable_car subway aircraft wheelchair scooter drone" speed="7.01" length="11.10" shape="1785.62,800.01 1787.23,802.93 1789.20,804.62 1791.53,805.09 1794.22,804.34"/>
        <lane id=":275053960_0_1" index="1" disallow="pedestrian tram rail_urban rail rail_electric rail_fast ship container cable_car subway aircraft wheelchair scooter drone" speed="7.78" length="13.95" shape="1785.62,800.01 1787.76,804.22 1790.14,806.83 1792.75,807.83 1795.59,807.24"/>
    </edge>
    <edge id=":275053960_2" function="internal">
        <lane id=":275053960_2_0" index="0" disallow="pedestrian tram rail_urban rail rail_electric rail_fast ship container cable_car subway aircraft wheelchair scooter drone" speed="16.67" length="19.44" shape="1785.62,800.01 1787.91,805.33 1789.72,808.85 1791.69,812.30 1794.49,817.38"/>
        <lane id=":275053960_2_1" index="1" disallow="pedestrian tram rail_urban rail rail_electric rail_fast ship container cable_car subway aircraft wheelchair scooter drone" speed="16.67" length="19.44" shape="1782.79,801.57 1785.08,806.86 1786.89,810.38 1788.87,813.81 1791.66,818.87"/>
        <lane id=":275053960_2_2" index="2" disallow="pedestrian tram rail_urban rail rail_electric rail_fast ship container cable_car subway aircraft wheelchair scooter drone" speed="16.67" length="19.44" shape="1779.97,803.12 1782.25,808.40 1784.07,811.90 1786.05,815.32 1788.83,820.37"/>
        <lane id=":275053960_2_3" index="3" disallow="pedestrian tram rail_urban rail rail_electric rail_fast ship container cable_car subway aircraft wheelchair scooter drone" speed="16.67" length="19.44" shape="1777.15,804.67 1779.43,809.94 1781.24,813.42 1783.22,816.83 1786.00,821.86"/>
    </edge>
    <edge id=":275053960_6" function="internal">
        <lane id=":275053960_6_0" index="0" disallow="pedestrian tram rail_urban rail rail_electric rail_fast ship container cable_car subway aircraft wheelchair scooter drone" speed="16.67" length="17.59" shape="1777.71,810.44 1782.51,808.41 1785.95,807.37 1789.40,806.35 1794.22,804.34"/>
        <lane id=":275053960_6_1" index="1" disallow="pedestrian tram rail_urban rail rail_electric rail_fast ship container cable_car subway aircraft wheelchair scooter drone" speed="16.67" length="17.59" shape="1779.10,813.32 1783.90,811.29 1787.33,810.26 1790.77,809.24 1795.59,807.24"/>
        <lane id=":275053960_6_2" index="2" disallow="pedestrian tram rail_urban rail rail_electric rail_fast ship container cable_car subway aircraft wheelchair scooter drone" speed="16.67" length="17.59" shape="1780.49,816.21 1785.28,814.18 1788.71,813.15 1792.15,812.13 1796.96,810.13"/>
        <lane id=":275053960_6_3" index="3" disallow="pedestrian tram rail_urban rail rail_electric rail_fast ship container cable_car subway aircraft wheelchair scooter drone" speed="16.67" length="17.59" shape="1781.88,819.09 1786.66,817.06 1790.09,816.03 1793.52,815.01 1798.32,813.02"/>
    </edge>
    <edge id=":275053960_10" function="internal">
        <lane id=":275053960_10_0" index="0" disallow="pedestrian tram rail_urban rail rail_electric rail_fast ship container cable_car subway aircraft wheelchair scooter drone" speed="5.48" length="5.92" shape="1783.27,821.97 1784.45,821.41 1786.21,820.68 1787.89,820.18 1788.83,820.37"/>
        <lane id=":275053960_10_1" index="1" disallow="pedestrian tram rail_urban rail rail_electric rail_fast ship container cable_car subway aircraft wheelchair scooter drone" speed="4.16" length="2.98" shape="1783.27,821.97 1784.27,821.56 1785.06,821.41 1785.64,821.51 1786.00,821.86"/>
    </edge>
    <edge id=":491051865_0" function="internal">
        <lane id=":491051865_0_0" index="0" disallow="pedestrian tram rail_urban rail rail_electric rail_fast ship container cable_car subway aircraft wheelchair scooter drone" speed="16.67" length="20.21" shape="1770.59,830.09 1768.02,824.60 1766.68,820.66 1765.45,816.66 1763.18,811.02"/>
        <lane id=":491051865_0_1" index="1" disallow="pedestrian tram rail_urban rail rail_electric rail_fast ship container cable_car subway aircraft wheelchair scooter drone" speed="16.67" length="20.21" shape="1773.42,828.60 1770.88,823.16 1769.56,819.25 1768.34,815.29 1766.10,809.70"/>
        <lane id=":491051865_0_2" index="2" disallow="pedestrian tram rail_urban rail rail_electric rail_fast ship container cable_car subway aircraft wheelchair scooter drone" speed="16.67" length="20.21" shape="1776.25,827.12 1773.74,821.72 1772.44,817.85 1771.24,813.92 1769.01,808.38"/>
        <lane id=":491051865_0_3" index="3" disallow="pedestrian tram rail_urban rail rail_electric rail_fast ship container cable_car subway aircraft wheelchair scooter drone" speed="16.67" length="20.21" shape="1779.09,825.63 1776.59,820.28 1775.31,816.44 1774.13,812.55 1771.93,807.06"/>
    </edge>
    <edge id=":491051865_4" function="internal">
        <lane id=":491051865_4_0" index="0" disallow="pedestrian tram rail_urban rail rail_electric rail_fast ship container cable_car subway aircraft wheelchair scooter drone" speed="6.27" length="8.51" shape="1781.92,824.14 1780.46,821.07 1779.71,818.74 1779.66,817.15 1780.31,816.29"/>
        <lane id=":491051865_4_1" index="1" disallow="pedestrian tram rail_urban rail rail_electric rail_fast ship container cable_car subway aircraft wheelchair scooter drone" speed="5.18" length="5.49" shape="1781.92,824.14 1781.11,822.31 1780.80,820.88 1781.00,819.83 1781.70,819.18"/>
        <lane id=":491051865_4_2" index="2" disallow="pedestrian tram rail_urban rail rail_electric rail_fast ship container cable_car subway aircraft wheelchair scooter drone" speed="3.94" length="2.71" shape="1781.92,824.14 1781.75,823.55 1781.89,823.01 1782.34,822.51 1783.09,822.06"/>
    </edge>
    <edge id=":491051865_7" function="internal">
        <lane id=":491051865_7_0" index="0" disallow="pedestrian tram rail_urban rail rail_electric rail_fast ship container cable_car subway aircraft wheelchair scooter drone" speed="6.97" length="10.34" shape="1759.29,819.28 1761.89,817.64 1763.40,815.72 1763.83,813.51 1763.18,811.02"/>
        <lane id=":491051865_7_1" index="1" disallow="pedestrian tram rail_urban rail rail_electric rail_fast ship container cable_car subway aircraft wheelchair scooter drone" speed="7.76" length="13.06" shape="1759.29,819.28 1763.15,817.04 1765.57,814.70 1766.56,812.25 1766.10,809.70"/>
    </edge>
    <edge id=":491051865_9" function="internal">
        <lane id=":491051865_9_0" index="0" disallow="pedestrian tram rail_urban rail rail_electric rail_fast ship container cable_car subway aircraft wheelchair scooter drone" speed="16.67" length="20.25" shape="1759.29,819.28 1777.53,810.53"/>
        <lane id=":491051865_9_1" index="1" disallow="pedestrian tram rail_urban rail rail_electric rail_fast ship container cable_car subway aircraft wheelchair scooter drone" speed="16.67" length="20.25" shape="1760.67,822.17 1778.92,813.41"/>
        <lane id=":491051865_9_2" index="2" disallow="pedestrian tram rail_urban rail rail_electric rail_fast ship container cable_car subway aircraft wheelchair scooter drone" speed="16.67" length="20.25" shape="1762.05,825.05 1780.31,816.29"/>
        <lane id=":491051865_9_3" index="3" disallow="pedestrian tram rail_urban rail rail_electric rail_fast ship container cable_car subway aircraft wheelchair scooter drone" speed="16.67" length="20.25" shape="1763.43,827.94 1781.70,819.18"/>
        <lane id=":491051865_9_4" index="4" disallow="pedestrian tram rail_urban rail rail_electric rail_fast ship container cable_car subway aircraft wheelchair scooter drone" speed="16.67" length="20.25" shape="1764.81,830.83 1783.09,822.06"/>
    </edge>
    <edge id=":491051888_0" function="internal">
        <lane id=":491051888_0_0" index="0" disallow="pedestrian tram rail_urban rail rail_electric rail_fast ship container cable_car subway aircraft wheelchair scooter drone" speed="7.24" length="11.11" shape="1779.58,847.44 1777.74,844.64 1775.65,843.00 1773.29,842.51 1770.68,843.19"/>
        <lane id=":491051888_0_1" index="1" disallow="pedestrian tram rail_urban rail rail_electric rail_fast ship container cable_car subway aircraft wheelchair scooter drone" speed="8.01" length="13.82" shape="1779.58,847.44 1777.12,843.38 1774.59,840.84 1772.00,839.81 1769.35,840.29"/>
    </edge>
    <edge id=":491051888_2" function="internal">
        <lane id=":491051888_2_0" index="0" disallow="pedestrian tram rail_urban rail rail_electric rail_fast ship container cable_car subway aircraft wheelchair scooter drone" speed="16.67" length="19.39" shape="1779.58,847.44 1770.68,830.27"/>
        <lane id=":491051888_2_1" index="1" disallow="pedestrian tram rail_urban rail rail_electric rail_fast ship container cable_car subway aircraft wheelchair scooter drone" speed="16.67" length="19.39" shape="1782.43,845.97 1773.51,828.78"/>
        <lane id=":491051888_2_2" index="2" disallow="pedestrian tram rail_urban rail rail_electric rail_fast ship container cable_car subway aircraft wheelchair scooter drone" speed="16.67" length="19.39" shape="1785.27,844.51 1776.35,827.29"/>
        <lane id=":491051888_2_3" index="3" disallow="pedestrian tram rail_urban rail rail_electric rail_fast ship container cable_car subway aircraft wheelchair scooter drone" speed="16.67" length="19.39" shape="1788.11,843.04 1779.18,825.80"/>
        <lane id=":491051888_2_4" index="4" disallow="pedestrian tram rail_urban rail rail_electric rail_fast ship container cable_car subway aircraft wheelchair scooter drone" speed="16.67" length="19.39" shape="1790.96,841.57 1782.01,824.32"/>
    </edge>
    <edge id=":491051888_7" function="internal">
        <lane id=":491051888_7_0" index="0" disallow="pedestrian tram rail_urban rail rail_electric rail_fast ship container cable_car subway aircraft wheelchair scooter drone" speed="16.67" length="20.77" shape="1790.18,835.88 1770.68,843.19"/>
        <lane id=":491051888_7_1" index="1" disallow="pedestrian tram rail_urban rail rail_electric rail_fast ship container cable_car subway aircraft wheelchair scooter drone" speed="16.67" length="20.77" shape="1788.81,832.99 1769.35,840.29"/>
        <lane id=":491051888_7_2" index="2" disallow="pedestrian tram rail_urban rail rail_electric rail_fast ship container cable_car subway aircraft wheelchair scooter drone" speed="16.67" length="20.77" shape="1787.44,830.10 1768.01,837.38"/>
        <lane id=":491051888_7_3" index="3" disallow="pedestrian tram rail_urban rail rail_electric rail_fast ship container cable_car subway aircraft wheelchair scooter drone" speed="16.67" length="20.77" shape="1786.07,827.21 1766.67,834.47"/>
    </edge>
    <edge id=":491051888_11" function="internal">
        <lane id=":491051888_11_0" index="0" disallow="pedestrian tram rail_urban rail rail_electric rail_fast ship container cable_car subway aircraft wheelchair scooter drone" speed="6.58" length="8.95" shape="1784.70,824.31 1783.08,825.09 1780.36,826.30 1777.72,827.26 1776.35,827.29"/>
        <lane id=":491051888_11_1" index="1" disallow="pedestrian tram rail_urban rail rail_electric rail_fast ship container cable_car subway aircraft wheelchair scooter drone" speed="5.47" length="5.89" shape="1784.70,824.31 1782.46,825.30 1780.80,825.88 1779.70,826.05 1779.18,825.80"/>
        <lane id=":491051888_11_2" index="2" disallow="pedestrian tram rail_urban rail rail_electric rail_fast ship container cable_car subway aircraft wheelchair scooter drone" speed="4.14" length="2.94" shape="1784.70,824.31 1783.72,824.70 1782.95,824.82 1782.38,824.70 1782.01,824.32"/>
    </edge>

    <edge id="1058147275" from="264942905" to="9723029732" priority="1" type="highway.footway" spreadType="center">
        <lane id="1058147275_0" index="0" allow="pedestrian" speed="2.78" length="0.20" width="5.00" shape="1808.17,778.54 1808.25,778.72"/>
    </edge>
    <edge id="1217383428" from="11591980474" to="11279922488" priority="18" type="railway.subway" spreadType="center" shape="3603.30,0.00 3504.66,46.30 3357.73,113.37 3315.70,132.51 3153.10,208.93 2383.71,556.92 2186.85,646.51 1917.52,768.40 1744.75,848.12 1686.29,875.58 1523.66,988.39 1426.30,1053.11 1349.58,1105.04 1283.35,1149.23 1160.28,1227.60 1076.47,1258.72 1012.36,1282.29 902.38,1326.36 837.81,1349.27 754.35,1387.39 676.16,1424.09 623.17,1492.02 583.41,1574.61">
        <lane id="1217383428_0" index="0" allow="subway" speed="27.78" length="3441.17" shape="3603.30,0.00 3504.66,46.30 3357.73,113.37 3315.70,132.51 3153.10,208.93 2383.71,556.92 2186.85,646.51 1917.52,768.40 1744.75,848.12 1686.29,875.58 1523.66,988.39 1426.30,1053.11 1349.58,1105.04 1283.35,1149.23 1160.28,1227.60 1076.47,1258.72 1012.36,1282.29 902.38,1326.36 837.81,1349.27 754.35,1387.39 676.16,1424.09 623.17,1492.02 583.41,1574.61"/>
    </edge>
    <edge id="183416316#0" from="263211383" to="262845835" priority="1" type="highway.footway" spreadType="center" shape="1821.52,953.93 1811.62,933.03 1805.64,919.63 1801.97,911.45 1793.85,894.20 1788.73,887.02 1784.07,882.14 1779.36,877.91 1769.47,871.36 1758.28,864.71">
        <lane id="183416316#0_0" index="0" allow="pedestrian" speed="2.78" length="108.67" width="2.00" shape="1821.52,953.93 1811.62,933.03 1805.64,919.63 1801.97,911.45 1793.85,894.20 1788.73,887.02 1784.07,882.14 1779.36,877.91 1769.47,871.36 1761.67,866.72"/>
    </edge>
    <edge id="183416316#1" from="262845835" to="260174762" priority="1" type="highway.footway" spreadType="center">
        <lane id="183416316#1_0" index="0" allow="pedestrian" speed="2.78" length="0.20" width="2.00" shape="1757.03,864.01 1756.85,863.91"/>
    </edge>
    <edge id="183416316#2" from="260174762" to="2674856757" priority="1" type="highway.footway" spreadType="center" shape="1754.40,862.55 1709.82,883.22 1700.16,887.45 1678.11,898.81 1666.03,906.89 1658.07,912.63 1641.63,923.79 1632.15,930.24 1588.30,959.50 1593.42,966.99 1599.17,974.60">
        <lane id="183416316#2_0" index="0" allow="pedestrian" speed="2.78" length="209.49" width="2.00" shape="1752.57,863.39 1709.82,883.22 1700.16,887.45 1678.11,898.81 1666.03,906.89 1658.07,912.63 1641.63,923.79 1632.15,930.24 1588.30,959.50 1593.42,966.99 1599.17,974.60"/>
    </edge>
    <edge id="23409498#0" from="260170307" to="260170545" priority="1" type="highway.footway" spreadType="center" shape="1650.81,534.19 1673.44,597.16 1696.86,656.87 1701.50,669.90 1709.51,692.35">
        <lane id="23409498#0_0" index="0" allow="pedestrian" speed="2.78" length="166.50" width="3.00" shape="1650.81,534.19 1673.44,597.16 1696.86,656.87 1701.50,669.90 1708.77,690.26"/>
    </edge>
    <edge id="23409498#1" from="260170545" to="264939969" priority="1" type="highway.footway" spreadType="center" shape="1709.51,692.35 1719.95,729.63 1724.29,743.41 1732.70,758.44 1736.44,765.70 1745.39,787.04">
        <lane id="23409498#1_0" index="0" allow="pedestrian" speed="2.78" length="96.47" width="3.00" shape="1710.31,695.20 1719.95,729.63 1724.29,743.41 1732.70,758.44 1736.44,765.70 1744.52,784.95"/>
    </edge>
    <edge id="23409498#2" from="264939969" to="264939422" priority="1" type="highway.footway" spreadType="center">
        <lane id="23409498#2_0" index="0" allow="pedestrian" speed="2.78" length="23.99" width="3.00" shape="1743.36,790.41 1730.96,810.94"/>
    </edge>
    <edge id="23409498#3" from="264939422" to="313201347" priority="1" type="highway.footway" spreadType="center" shape="1729.41,813.51 1698.14,826.21 1681.44,833.70 1642.88,852.79 1627.32,861.81">
        <lane id="23409498#3_0" index="0" allow="pedestrian" speed="2.78" length="108.85" width="3.00" shape="1725.50,815.10 1698.14,826.21 1681.44,833.70 1642.88,852.79 1627.32,861.81"/>
    </edge>
    <edge id="23995450#0" from="264939369" to="264939422" priority="1" type="highway.footway" spreadType="center">
        <lane id="23995450#0_0" index="0" allow="pedestrian" speed="2.78" length="3.58" width="2.00" shape="1736.14,815.24 1732.67,814.35"/>
    </edge>
    <edge id="23995450#1" from="264939422" to="260170545" priority="1" type="highway.footway" spreadType="center" shape="1729.41,813.51 1724.54,811.18 1702.79,805.66 1698.10,770.35 1695.91,746.88 1697.73,728.37 1700.55,723.71 1707.26,693.72 1709.51,692.35">
        <lane id="23995450#1_0" index="0" allow="pedestrian" speed="2.78" length="136.68" width="2.00" shape="1725.40,811.59 1724.54,811.18 1702.79,805.66 1698.10,770.35 1695.91,746.88 1697.73,728.37 1700.55,723.71 1707.11,694.40"/>
    </edge>
    <edge id="23995468" from="265999390" to="2661320896" priority="1" type="highway.footway" spreadType="center">
        <lane id="23995468_0" index="0" allow="pedestrian" speed="2.78" length="2.04" width="2.00" shape="1803.03,780.84 1802.12,779.01"/>
    </edge>
    <edge id="24406671" from="264939029" to="264939030" priority="1" type="highway.footway" spreadType="center">
        <lane id="24406671_0" index="0" allow="pedestrian" speed="2.78" length="17.35" width="2.00" shape="1834.23,845.24 1826.20,829.85"/>
    </edge>
    <edge id="24406684" from="264939369" to="2661320895" priority="1" type="highway.steps" spreadType="center">
        <lane id="24406684_0" index="0" allow="pedestrian" speed="1.39" length="9.36" width="4.00" shape="1740.09,815.75 1748.44,811.51"/>
    </edge>
    <edge id="24406807#0" from="264939029" to="264942420" priority="1" type="highway.steps" spreadType="center">
        <lane id="24406807#0_0" index="0" allow="pedestrian" speed="1.39" length="2.39" width="2.00" shape="1835.41,847.70 1836.36,849.90"/>
    </edge>
    <edge id="24406807#1" from="264942420" to="260174003" priority="1" type="highway.steps" spreadType="center">
        <lane id="24406807#1_0" index="0" allow="pedestrian" speed="1.39" length="5.01" width="2.00" shape="1838.34,854.49 1840.32,859.09"/>
    </edge>
    <edge id="24406853" from="312807237" to="264942419" priority="1" type="highway.steps" spreadType="center">
        <lane id="24406853_0" index="0" allow="pedestrian" speed="1.39" length="3.02" width="2.00" shape="1840.48,847.93 1839.12,845.23"/>
    </edge>
    <edge id="24406872" from="264939032" to="2661320894" priority="1" type="highway.footway" spreadType="center">
        <lane id="24406872_0" index="0" allow="pedestrian" speed="2.78" length="3.53" width="2.00" shape="1770.99,853.65 1767.80,855.17"/>
    </edge>
    <edge id="260608858#0" from="264939030" to="265999390" priority="1" type="highway.footway" spreadType="center">
        <lane id="260608858#0_0" index="0" allow="pedestrian" speed="2.78" length="44.23" width="2.00" shape="1824.00,825.41 1805.22,785.36"/>
    </edge>
    <edge id="260608858#1" from="265999390" to="264939031" priority="1" type="highway.footway" spreadType="center">
        <lane id="260608858#1_0" index="0" allow="pedestrian" speed="2.78" length="51.46" width="2.00" shape="1801.89,784.22 1756.09,807.68"/>
    </edge>
    <edge id="260608858#2" from="264939031" to="264939032" priority="1" type="highway.footway" spreadType="center">
        <lane id="260608858#2_0" index="0" allow="pedestrian" speed="2.78" length="42.78" width="2.00" shape="1754.79,811.19 1772.19,850.27"/>
    </edge>
    <edge id="260608858#3" from="264939032" to="264939030" priority="1" type="highway.footway" spreadType="center">
        <lane id="260608858#3_0" index="0" allow="pedestrian" speed="2.78" length="52.50" width="2.00" shape="1775.50,851.49 1822.82,828.74"/>
    </edge>
    <edge id="260608859" from="2661320897" to="264942905" priority="1" type="highway.steps" spreadType="center">
        <lane id="260608859_0" index="0" allow="pedestrian" speed="1.39" length="6.58" width="2.00" shape="1804.52,770.63 1807.28,776.61"/>
    </edge>
    <edge id="260608861" from="2661320896" to="260171202" priority="1" type="highway.steps" spreadType="center" shape="1801.49,777.74 1799.38,772.84 1796.92,767.10">
        <lane id="260608861_0" index="0" allow="pedestrian" speed="1.39" length="10.15" width="4.00" shape="1800.93,776.43 1799.38,772.84 1796.92,767.10"/>
    </edge>
    <edge id="260608862" from="2661320894" to="260174762" priority="1" type="highway.steps" spreadType="center">
        <lane id="260608862_0" index="0" allow="pedestrian" speed="1.39" length="11.99" width="2.00" shape="1767.80,855.17 1757.29,860.95"/>
    </edge>
    <edge id="260608863" from="2661320895" to="264939031" priority="1" type="highway.footway" spreadType="center">
        <lane id="260608863_0" index="0" allow="pedestrian" speed="2.78" length="0.41" width="2.00" shape="1751.11,810.17 1751.48,809.99"/>
    </edge>
    <edge id="260608864" from="9723029732" to="4952888169" priority="1" type="highway.footway" spreadType="center" shape="1808.90,780.14 1829.46,771.42 1833.20,769.44 1856.67,759.10 1864.01,757.28 1905.12,739.25 1910.74,737.15 1934.85,726.53 1959.39,715.48">
        <lane id="260608864_0" index="0" allow="pedestrian" speed="2.78" length="161.49" width="5.00" shape="1811.14,779.19 1829.46,771.42 1833.20,769.44 1856.67,759.10 1864.01,757.28 1905.12,739.25 1910.74,737.15 1934.85,726.53 1959.39,715.48"/>
    </edge>
    <edge id="282453176" from="2863823871" to="209186425" priority="18" type="railway.subway" spreadType="center" shape="0.00,2529.57 150.80,2287.70 426.31,1845.85 529.07,1663.00 581.08,1573.05 619.62,1491.19 672.71,1422.98 839.32,1344.51 1153.13,1225.50 1266.92,1155.44 1526.79,980.98 1680.89,874.64 1842.16,797.06 3493.95,47.43 3578.58,8.87">
        <lane id="282453176_0" index="0" allow="subway" speed="27.78" length="4535.84" shape="0.00,2529.57 150.80,2287.70 426.31,1845.85 529.07,1663.00 581.08,1573.05 619.62,1491.19 672.71,1422.98 839.32,1344.51 1153.13,1225.50 1266.92,1155.44 1526.79,980.98 1680.89,874.64 1842.16,797.06 3493.95,47.43 3578.58,8.87"/>
    </edge>
    <edge id="30818368" from="275053957" to="1556166565" priority="12" type="highway.primary" spreadType="center" shape="1794.11,826.94 1821.24,877.14 1828.22,890.45 1833.44,902.21">
        <lane id="30818368_0" index="0" disallow="pedestrian tram rail_urban rail rail_electric rail_fast ship container cable_car subway aircraft wheelchair scooter drone" speed="16.67" length="72.72" shape="1801.34,836.95 1822.65,876.39 1829.67,889.75 1834.90,901.56"/>
        <lane id="30818368_1" index="1" disallow="pedestrian tram rail_urban rail rail_electric rail_fast ship container cable_car subway aircraft wheelchair scooter drone" speed="16.67" length="72.72" shape="1798.52,838.47 1819.82,877.89 1826.78,891.14 1831.97,902.86"/>
    </edge>
    <edge id="30819365" from="275053957" to="491051888" priority="12" type="highway.primary" spreadType="center">
        <lane id="30819365_0" index="0" disallow="pedestrian tram rail_urban rail rail_electric rail_fast ship container cable_car subway aircraft wheelchair scooter drone" speed="16.67" length="0.20" shape="1790.36,835.80 1790.18,835.88"/>
        <lane id="30819365_1" index="1" disallow="pedestrian tram rail_urban rail rail_electric rail_fast ship container cable_car subway aircraft wheelchair scooter drone" speed="16.67" length="0.20" shape="1788.99,832.90 1788.81,832.99"/>
        <lane id="30819365_2" index="2" disallow="pedestrian tram rail_urban rail rail_electric rail_fast ship container cable_car subway aircraft wheelchair scooter drone" speed="16.67" length="0.20" shape="1787.62,830.01 1787.44,830.10"/>
        <lane id="30819365_3" index="3" disallow="pedestrian tram rail_urban rail rail_electric rail_fast ship container cable_car subway aircraft wheelchair scooter drone" speed="16.67" length="0.20" shape="1786.25,827.12 1786.07,827.21"/>
        <lane id="30819365_4" index="4" disallow="pedestrian tram rail_urban rail rail_electric rail_fast ship container cable_car subway aircraft wheelchair scooter drone" speed="16.67" length="0.20" shape="1784.88,824.23 1784.70,824.31"/>
        <param key="ref" value="М4"/>
    </edge>
    <edge id="337542441" from="3446157093" to="275053957" priority="12" type="highway.primary" spreadType="center" shape="1977.94,743.03 1952.77,754.99 1794.11,826.94">
        <lane id="337542441_0" index="0" disallow="pedestrian tram rail_urban rail rail_electric rail_fast ship container cable_car subway aircraft wheelchair scooter drone" speed="16.67" length="192.15" shape="1980.68,748.81 1955.47,760.79 1805.79,828.66"/>
        <lane id="337542441_1" index="1" disallow="pedestrian tram rail_urban rail rail_electric rail_fast ship container cable_car subway aircraft wheelchair scooter drone" speed="16.67" length="192.15" shape="1979.31,745.92 1954.12,757.89 1804.47,825.75"/>
        <lane id="337542441_2" index="2" disallow="pedestrian tram rail_urban rail rail_electric rail_fast ship container cable_car subway aircraft wheelchair scooter drone" speed="16.67" length="192.15" shape="1977.94,743.03 1952.77,754.99 1803.15,822.84"/>