<?xml version="1.0" encoding="UTF-8"?>

<!-- generated on 2024-09-03 01:38:32 by Eclipse SUMO netconvert Version 1.20.0
<configuration xmlns:xsi="http://www.w3.org/2001/XMLSchema-instance" xsi:noNamespaceSchemaLocation="http://sumo.dlr.de/xsd/netconvertConfiguration.xsd">

    <input>
        <osm-files value="train_files/roundabout/hard/osm_files/map(77).osm"/>
    </input>

    <output>
        <output-file value="train_files/roundabout/hard/outputs/map(77)_dict/map(77)/map(77).net.xml"/>
    </output>

    <projection>
        <proj.utm value="true"/>
    </projection>

    <building_defaults>
        <default.junctions.keep-clear value="false"/>
    </building_defaults>

</configuration>
-->

<net version="1.20" junctionCornerDetail="5" limitTurnSpeed="5.50" xmlns:xsi="http://www.w3.org/2001/XMLSchema-instance" xsi:noNamespaceSchemaLocation="http://sumo.dlr.de/xsd/net_file.xsd">

    <location netOffset="-587682.38,-5626156.14" convBoundary="0.00,0.00,223.66,582.68" origBoundary="4.243786,50.780514,4.246927,50.785738" projParameter="+proj=utm +zone=31 +ellps=WGS84 +datum=WGS84 +units=m +no_defs"/>

    <type id="highway.cycleway" priority="1" numLanes="1" speed="5.56" allow="bicycle" oneway="0" width="2.00"/>
    <type id="highway.footway" priority="1" numLanes="1" speed="2.78" allow="pedestrian" oneway="1" width="2.00"/>
    <type id="highway.secondary" priority="11" numLanes="1" speed="27.78" disallow="tram rail_urban rail rail_electric rail_fast ship container cable_car subway aircraft wheelchair scooter drone" oneway="0"/>
    <type id="highway.tertiary" priority="10" numLanes="1" speed="22.22" disallow="tram rail_urban rail rail_electric rail_fast ship container cable_car subway aircraft wheelchair scooter drone" oneway="0"/>

    <edge id=":12077795943_0" function="internal">
        <lane id=":12077795943_0_0" index="0" allow="bicycle" speed="5.56" length="4.93" width="2.00" shape="120.35,75.51 115.87,77.56"/>
    </edge>
    <edge id=":1248301393_0" function="internal">
        <lane id=":1248301393_0_0" index="0" disallow="tram rail_urban rail rail_electric rail_fast ship container cable_car subway aircraft wheelchair scooter drone" speed="10.57" length="3.30" shape="140.76,81.64 140.57,80.68 140.35,80.05 140.01,79.46 139.45,78.65"/>
    </edge>
    <edge id=":1248301393_1" function="internal">
        <lane id=":1248301393_1_0" index="0" disallow="tram rail_urban rail rail_electric rail_fast ship container cable_car subway aircraft wheelchair scooter drone" speed="3.65" length="1.44" shape="140.76,81.64 141.34,80.32"/>
    </edge>
    <edge id=":1248301393_4" function="internal">
        <lane id=":1248301393_4_0" index="0" disallow="tram rail_urban rail rail_electric rail_fast ship container cable_car subway aircraft wheelchair scooter drone" speed="3.65" length="3.23" shape="141.34,80.32 142.06,79.79 142.92,80.04 143.92,81.08"/>
    </edge>
    <edge id=":1248301393_2" function="internal">
        <lane id=":1248301393_2_0" index="0" disallow="tram rail_urban rail rail_electric rail_fast ship container cable_car subway aircraft wheelchair scooter drone" speed="13.89" length="5.69" shape="142.73,75.55 142.86,77.21 143.15,78.33 143.53,79.44 143.92,81.08"/>
    </edge>
    <edge id=":1248301393_3" function="internal">
        <lane id=":1248301393_3_0" index="0" disallow="tram rail_urban rail rail_electric rail_fast ship container cable_car subway aircraft wheelchair scooter drone" speed="4.88" length="3.41" shape="142.73,75.55 142.55,78.71 142.46,78.94"/>
    </edge>
    <edge id=":1248301393_5" function="internal">
        <lane id=":1248301393_5_0" index="0" disallow="tram rail_urban rail rail_electric rail_fast ship container cable_car subway aircraft wheelchair scooter drone" speed="4.88" length="4.65" shape="142.46,78.94 141.94,80.29 140.91,80.27 139.45,78.65"/>
    </edge>
    <edge id=":250048899_0" function="internal">
        <lane id=":250048899_0_0" index="0" disallow="tram rail_urban rail rail_electric rail_fast ship container cable_car subway aircraft wheelchair scooter drone" speed="5.37" length="3.88" shape="145.46,65.50 144.07,65.15 142.99,65.02 142.20,65.09 141.70,65.38"/>
    </edge>
    <edge id=":250048899_1" function="internal">
        <lane id=":250048899_1_0" index="0" disallow="tram rail_urban rail rail_electric rail_fast ship container cable_car subway aircraft wheelchair scooter drone" speed="9.86" length="5.74" shape="144.52,60.56 144.20,62.19 143.68,63.22 142.88,64.13 141.70,65.38"/>
    </edge>
    <edge id=":250048902_0" function="internal">
        <lane id=":250048902_0_0" index="0" disallow="tram rail_urban rail rail_electric rail_fast ship container cable_car subway aircraft wheelchair scooter drone" speed="7.34" length="5.65" shape="126.90,40.21 128.08,41.26 129.30,41.99 130.57,42.38 131.88,42.44"/>
    </edge>
    <edge id=":250048902_1" function="internal">
        <lane id=":250048902_1_0" index="0" disallow="tram rail_urban rail rail_electric rail_fast ship container cable_car subway aircraft wheelchair scooter drone" speed="13.89" length="6.88" shape="125.30,44.27 127.18,43.47 128.50,42.97 129.86,42.66 131.88,42.44"/>
    </edge>
    <edge id=":250048904_0" function="internal">
        <lane id=":250048904_0_0" index="0" disallow="tram rail_urban rail rail_electric rail_fast ship container cable_car subway aircraft wheelchair scooter drone" speed="7.66" length="6.04" shape="127.26,68.92 125.31,68.62 123.68,68.59 122.37,68.84 121.39,69.36"/>
    </edge>
    <edge id=":250048904_1" function="internal">
        <lane id=":250048904_1_0" index="0" disallow="tram rail_urban rail rail_electric rail_fast ship container cable_car subway aircraft wheelchair scooter drone" speed="9.28" length="6.48" shape="127.26,68.92 125.42,68.47 124.22,67.90 123.23,66.99 122.02,65.51"/>
    </edge>
    <edge id=":250048905_0" function="internal">
        <lane id=":250048905_0_0" index="0" disallow="tram rail_urban rail rail_electric rail_fast ship container cable_car subway aircraft wheelchair scooter drone" speed="8.33" length="5.99" shape="135.05,72.26 133.98,70.91 132.98,70.21 131.76,69.84 130.02,69.50"/>
    </edge>
    <edge id=":250048905_1" function="internal">
        <lane id=":250048905_1_0" index="0" disallow="tram rail_urban rail rail_electric rail_fast ship container cable_car subway aircraft wheelchair scooter drone" speed="9.07" length="7.86" shape="137.58,68.33 135.98,69.19 134.18,69.68 132.20,69.78 130.02,69.50"/>
    </edge>
    <edge id=":250049385_0" function="internal">
        <lane id=":250049385_0_0" index="0" disallow="tram rail_urban rail rail_electric rail_fast ship container cable_car subway aircraft wheelchair scooter drone" speed="20.83" length="11.14" shape="177.25,71.80 174.10,71.76 171.67,71.61 169.25,71.57 166.13,71.86"/>
    </edge>
    <edge id=":250049385_1" function="internal">
        <lane id=":250049385_1_0" index="0" disallow="tram rail_urban rail rail_electric rail_fast ship container cable_car subway aircraft wheelchair scooter drone" speed="3.65" length="1.44" shape="177.25,71.80 176.03,71.03"/>
    </edge>
    <edge id=":250049385_6" function="internal">
        <lane id=":250049385_6_0" index="0" disallow="tram rail_urban rail rail_electric rail_fast ship container cable_car subway aircraft wheelchair scooter drone" speed="3.65" length="3.23" shape="176.03,71.03 175.61,70.24 175.98,69.43 177.16,68.60"/>
    </edge>
    <edge id=":250049385_2" function="internal">
        <lane id=":250049385_2_0" index="0" allow="bicycle" speed="7.81" length="5.21" width="2.00" shape="172.68,65.76 173.81,66.82 174.68,67.53 175.66,67.91 177.15,68.00"/>
    </edge>
    <edge id=":250049385_3" function="internal">
        <lane id=":250049385_3_0" index="0" allow="bicycle" speed="6.17" length="12.88" width="2.00" shape="172.68,65.76 174.36,68.03 173.84,69.91 171.13,71.38 166.22,72.45"/>
    </edge>
    <edge id=":250049385_4" function="internal">
        <lane id=":250049385_4_0" index="0" disallow="tram rail_urban rail rail_electric rail_fast ship container cable_car subway aircraft wheelchair scooter drone" speed="13.89" length="9.37" shape="167.86,67.94 170.57,68.50 172.47,68.71 174.38,68.69 177.16,68.60"/>
    </edge>
    <edge id=":250049385_5" function="internal">
        <lane id=":250049385_5_0" index="0" disallow="tram rail_urban rail rail_electric rail_fast ship container cable_car subway aircraft wheelchair scooter drone" speed="5.46" length="3.94" shape="167.86,67.94 171.42,69.02 171.56,69.18"/>
    </edge>
    <edge id=":250049385_7" function="internal">
        <lane id=":250049385_7_0" index="0" disallow="tram rail_urban rail rail_electric rail_fast ship container cable_car subway aircraft wheelchair scooter drone" speed="5.46" length="7.66" shape="171.56,69.18 172.32,70.04 170.56,70.99 166.13,71.86"/>
    </edge>
    <edge id=":250049595_0" function="internal">
        <lane id=":250049595_0_0" index="0" disallow="tram rail_urban rail rail_electric rail_fast ship container cable_car subway aircraft wheelchair scooter drone" speed="3.65" length="4.67" shape="1.60,198.95 0.72,200.10 -0.10,200.45 -0.87,200.00 -1.60,198.75"/>
    </edge>
    <edge id=":2629305778_0" function="internal">
        <lane id=":2629305778_0_0" index="0" disallow="tram rail_urban rail rail_electric rail_fast ship container cable_car subway aircraft wheelchair scooter drone" speed="8.33" length="0.10" shape="93.46,18.48 93.46,18.48"/>
    </edge>
    <edge id=":2629305778_1" function="internal">
        <lane id=":2629305778_1_0" index="0" disallow="tram rail_urban rail rail_electric rail_fast ship container cable_car subway aircraft wheelchair scooter drone" speed="8.33" length="0.10" shape="95.22,15.80 95.22,15.80"/>
    </edge>
    <edge id=":2629305780_0" function="internal">
        <lane id=":2629305780_0_0" index="0" disallow="tram rail_urban rail rail_electric rail_fast ship container cable_car subway aircraft wheelchair scooter drone" speed="13.89" length="4.99" shape="120.37,33.74 121.51,34.69 122.27,35.36 123.00,36.07 124.01,37.14"/>
    </edge>
    <edge id=":2629305783_0" function="internal">
        <lane id=":2629305783_0_0" index="0" disallow="tram rail_urban rail rail_electric rail_fast ship container cable_car subway aircraft wheelchair scooter drone" speed="13.89" length="4.49" shape="151.77,60.27 155.20,63.17"/>
    </edge>
    <edge id=":2629305787_0" function="internal">
        <lane id=":2629305787_0_0" index="0" disallow="tram rail_urban rail rail_electric rail_fast ship container cable_car subway aircraft wheelchair scooter drone" speed="13.89" length="4.36" shape="111.18,70.15 114.46,67.28"/>
    </edge>
    <edge id=":2629305788_0" function="internal">
        <lane id=":2629305788_0_0" index="0" allow="bicycle" speed="9.72" length="5.76" width="2.00" shape="105.31,82.87 103.71,83.36 102.49,83.31 101.28,83.29 99.73,83.88"/>
    </edge>
    <edge id=":2629305788_1" function="internal">
        <lane id=":2629305788_1_0" index="0" allow="bicycle" speed="5.56" length="27.60" width="2.00" shape="105.31,82.87 98.30,85.66 96.20,84.51 99.00,79.44 106.72,70.43"/>
    </edge>
    <edge id=":2629305788_2" function="internal">
        <lane id=":2629305788_2_0" index="0" allow="bicycle" speed="6.13" length="16.85" width="2.00" shape="105.31,82.87 102.54,82.94 102.91,79.74 105.45,75.13 109.20,70.98"/>
    </edge>
    <edge id=":2629305788_3" function="internal">
        <lane id=":2629305788_3_0" index="0" disallow="tram rail_urban rail rail_electric rail_fast ship container cable_car subway aircraft wheelchair scooter drone" speed="13.89" length="15.48" shape="112.67,75.35 99.43,83.37"/>
    </edge>
    <edge id=":2629305788_4" function="internal">
        <lane id=":2629305788_4_0" index="0" allow="bicycle" speed="5.04" length="3.44" width="2.00" shape="112.36,74.84 109.66,75.43 109.03,75.18"/>
    </edge>
    <edge id=":2629305788_7" function="internal">
        <lane id=":2629305788_7_0" index="0" allow="bicycle" speed="5.04" length="6.48" width="2.00" shape="109.03,75.18 107.25,74.50 105.98,72.64 106.72,70.43"/>
    </edge>
    <edge id=":2629305788_5" function="internal">
        <lane id=":2629305788_5_0" index="0" allow="bicycle" speed="9.72" length="13.45" width="2.00" shape="97.47,80.11 100.25,78.03 102.43,75.68 104.44,73.13 106.72,70.43"/>
    </edge>
    <edge id=":2629305788_6" function="internal">
        <lane id=":2629305788_6_0" index="0" disallow="tram rail_urban rail rail_electric rail_fast ship container cable_car subway aircraft wheelchair scooter drone" speed="13.89" length="14.96" shape="97.78,80.62 100.89,78.55 103.84,76.26 106.71,73.85 109.58,71.45"/>
    </edge>
    <edge id=":2629305789_0" function="internal">
        <lane id=":2629305789_0_0" index="0" disallow="tram rail_urban rail rail_electric rail_fast ship container cable_car subway aircraft wheelchair scooter drone" speed="13.89" length="7.81" shape="142.09,89.53 140.80,81.84"/>
    </edge>
    <edge id=":2629305789_1" function="internal">
        <lane id=":2629305789_1_0" index="0" disallow="tram rail_urban rail rail_electric rail_fast ship container cable_car subway aircraft wheelchair scooter drone" speed="3.65" length="4.67" shape="142.09,89.53 142.71,88.23 143.45,87.72 144.30,88.00 145.26,89.07"/>
    </edge>
    <edge id=":2629305789_2" function="internal">
        <lane id=":2629305789_2_0" index="0" disallow="tram rail_urban rail rail_electric rail_fast ship container cable_car subway aircraft wheelchair scooter drone" speed="8.47" length="7.79" shape="148.27,82.16 146.78,83.98 145.78,85.74 145.27,87.44 145.26,89.07"/>
    </edge>
    <edge id=":2629305789_3" function="internal">
        <lane id=":2629305789_3_0" index="0" disallow="tram rail_urban rail rail_electric rail_fast ship container cable_car subway aircraft wheelchair scooter drone" speed="5.87" length="10.66" shape="148.27,82.16 145.46,84.63 143.28,85.40 141.73,84.47 140.80,81.84"/>
    </edge>
    <edge id=":2629305789_4" function="internal">
        <lane id=":2629305789_4_0" index="0" disallow="tram rail_urban rail rail_electric rail_fast ship container cable_car subway aircraft wheelchair scooter drone" speed="13.89" length="7.90" shape="143.95,81.28 145.26,89.07"/>
    </edge>
    <edge id=":2629305789_5" function="internal">
        <lane id=":2629305789_5_0" index="0" disallow="tram rail_urban rail rail_electric rail_fast ship container cable_car subway aircraft wheelchair scooter drone" speed="3.65" length="4.67" shape="143.95,81.28 143.37,82.60 142.65,83.13 141.79,82.88 140.80,81.84"/>
    </edge>
    <edge id=":2629317461_0" function="internal">
        <lane id=":2629317461_0_0" index="0" disallow="tram rail_urban rail rail_electric rail_fast ship container cable_car subway aircraft wheelchair scooter drone" speed="13.89" length="4.06" shape="117.24,41.11 116.83,39.99 116.44,39.26 115.94,38.59 115.20,37.64"/>
    </edge>
    <edge id=":2629317470_0" function="internal">
        <lane id=":2629317470_0_0" index="0" disallow="tram rail_urban rail rail_electric rail_fast ship container cable_car subway aircraft wheelchair scooter drone" speed="13.89" length="4.24" shape="152.95,67.75 148.90,66.49"/>
    </edge>
    <edge id=":2629317473_0" function="internal">
        <lane id=":2629317473_0_0" index="0" disallow="tram rail_urban rail rail_electric rail_fast ship container cable_car subway aircraft wheelchair scooter drone" speed="20.31" length="5.75" shape="165.93,71.89 164.27,72.20 163.18,72.60 162.14,73.17 160.65,74.00"/>
    </edge>
    <edge id=":2629317473_1" function="internal">
        <lane id=":2629317473_1_0" index="0" disallow="tram rail_urban rail rail_electric rail_fast ship container cable_car subway aircraft wheelchair scooter drone" speed="17.48" length="5.98" shape="165.93,71.89 164.25,71.85 163.17,71.31 162.09,70.57 160.43,69.93"/>
    </edge>
    <edge id=":2629317477_0" function="internal">
        <lane id=":2629317477_0_0" index="0" disallow="tram rail_urban rail rail_electric rail_fast ship container cable_car subway aircraft wheelchair scooter drone" speed="13.89" length="4.44" shape="117.94,71.98 114.22,74.41"/>
    </edge>
    <edge id=":2629317479_0" function="internal">
        <lane id=":2629317479_0_0" index="0" disallow="tram rail_urban rail rail_electric rail_fast ship container cable_car subway aircraft wheelchair scooter drone" speed="13.89" length="2.29" shape="142.50,73.07 142.59,73.75 142.67,74.21 142.71,74.67 142.73,75.35"/>
    </edge>
    <edge id=":2629317481_0" function="internal">
        <lane id=":2629317481_0_0" index="0" disallow="tram rail_urban rail rail_electric rail_fast ship container cable_car subway aircraft wheelchair scooter drone" speed="13.89" length="3.51" shape="139.34,78.49 137.34,75.60"/>
    </edge>
    <edge id=":2629317482_0" function="internal">
        <lane id=":2629317482_0_0" index="0" disallow="tram rail_urban rail rail_electric rail_fast ship container cable_car subway aircraft wheelchair scooter drone" speed="13.89" length="5.39" shape="155.16,76.88 153.75,77.64 152.82,78.21 151.95,78.89 150.75,79.94"/>
    </edge>
    <edge id=":267329574_0" function="internal">
        <lane id=":267329574_0_0" index="0" allow="bicycle" speed="6.95" length="7.15" width="2.00" shape="104.73,30.81 103.61,29.09 103.36,27.51 103.02,26.02 101.67,24.58"/>
    </edge>
    <edge id=":267329574_1" function="internal">
        <lane id=":267329574_1_0" index="0" allow="bicycle" speed="5.56" length="13.69" width="2.00" shape="104.73,30.81 102.78,28.04 102.79,25.43 104.78,23.00 108.73,20.74"/>
    </edge>
    <edge id=":267329574_2" function="internal">
        <lane id=":267329574_2_0" index="0" allow="bicycle" speed="4.99" length="10.97" width="2.00" shape="104.73,30.81 103.76,28.30 104.92,25.90 107.33,24.54 110.11,25.14"/>
    </edge>
    <edge id=":267329574_3" function="internal">
        <lane id=":267329574_3_0" index="0" disallow="tram rail_urban rail rail_electric rail_fast ship container cable_car subway aircraft wheelchair scooter drone" speed="11.11" length="7.28" shape="107.31,29.04 105.80,27.48 104.81,26.36 103.74,25.34 102.00,24.08"/>
    </edge>
    <edge id=":267329574_4" function="internal">
        <lane id=":267329574_4_0" index="0" allow="bicycle" speed="6.11" length="3.38" width="2.00" shape="107.72,28.60 105.80,26.21 105.73,25.91"/>
    </edge>
    <edge id=":267329574_7" function="internal">
        <lane id=":267329574_7_0" index="0" allow="bicycle" speed="6.11" length="6.80" width="2.00" shape="105.73,25.91 105.32,24.09 106.30,22.27 108.73,20.74"/>
    </edge>
    <edge id=":267329574_5" function="internal">
        <lane id=":267329574_5_0" index="0" allow="bicycle" speed="6.37" length="4.83" width="2.00" shape="104.09,20.91 105.02,21.32 106.10,21.42 107.34,21.23 108.73,20.74"/>
    </edge>
    <edge id=":267329574_6" function="internal">
        <lane id=":267329574_6_0" index="0" disallow="tram rail_urban rail rail_electric rail_fast ship container cable_car subway aircraft wheelchair scooter drone" speed="11.11" length="7.34" shape="103.76,21.41 109.76,25.63"/>
    </edge>
    <edge id=":267332184_0" function="internal">
        <lane id=":267332184_0_0" index="0" disallow="tram rail_urban rail rail_electric rail_fast ship container cable_car subway aircraft wheelchair scooter drone" speed="3.65" length="4.67" shape="223.62,67.33 224.84,68.09 225.26,68.88 224.88,69.69 223.71,70.52"/>
    </edge>
    <edge id=":271377155_0" function="internal">
        <lane id=":271377155_0_0" index="0" disallow="tram rail_urban rail rail_electric rail_fast ship container cable_car subway aircraft wheelchair scooter drone" speed="3.65" length="4.67" shape="165.90,583.12 164.80,584.05 163.92,584.22 163.26,583.61 162.82,582.24"/>
    </edge>
    <edge id=":489369671_0" function="internal">
        <lane id=":489369671_0_0" index="0" disallow="tram rail_urban rail rail_electric rail_fast ship container cable_car subway aircraft wheelchair scooter drone" speed="5.91" length="3.21" shape="141.57,65.53 141.33,66.19 141.47,66.98 141.75,67.82 141.95,68.62"/>
    </edge>
    <edge id=":489369671_1" function="internal">
        <lane id=":489369671_1_0" index="0" disallow="tram rail_urban rail rail_electric rail_fast ship container cable_car subway aircraft wheelchair scooter drone" speed="20.83" length="4.48" shape="141.57,65.53 140.64,66.45 139.88,66.95 139.06,67.38 137.93,68.08"/>
    </edge>
    <edge id=":489369675_0" function="internal">
        <lane id=":489369675_0_0" index="0" disallow="tram rail_urban rail rail_electric rail_fast ship container cable_car subway aircraft wheelchair scooter drone" speed="13.89" length="7.12" shape="121.90,65.35 120.64,63.67 119.90,62.43 119.33,61.09 118.56,59.12"/>
    </edge>
    <edge id=":489369675_1" function="internal">
        <lane id=":489369675_1_0" index="0" disallow="tram rail_urban rail rail_electric rail_fast ship container cable_car subway aircraft wheelchair scooter drone" speed="6.32" length="6.86" shape="117.25,65.29 118.43,64.11 119.04,62.69 119.08,61.03 118.56,59.12"/>
    </edge>
    <edge id=":489369679_0" function="internal">
        <lane id=":489369679_0_0" index="0" disallow="tram rail_urban rail rail_electric rail_fast ship container cable_car subway aircraft wheelchair scooter drone" speed="9.14" length="5.47" shape="119.13,50.95 119.53,49.40 119.60,48.28 119.35,47.17 118.82,45.65"/>
    </edge>
    <edge id=":489369679_1" function="internal">
        <lane id=":489369679_1_0" index="0" disallow="tram rail_urban rail rail_electric rail_fast ship container cable_car subway aircraft wheelchair scooter drone" speed="13.85" length="6.59" shape="119.13,50.95 119.84,49.18 120.64,48.12 121.67,47.19 123.09,45.83"/>
    </edge>
    <edge id=":489369686_0" function="internal">
        <lane id=":489369686_0_0" index="0" disallow="tram rail_urban rail rail_electric rail_fast ship container cable_car subway aircraft wheelchair scooter drone" speed="13.89" length="5.33" shape="145.05,52.03 145.71,53.47 146.16,54.47 146.75,55.38 147.82,56.52"/>
    </edge>
    <edge id=":489369686_1" function="internal">
        <lane id=":489369686_1_0" index="0" disallow="tram rail_urban rail rail_electric rail_fast ship container cable_car subway aircraft wheelchair scooter drone" speed="11.11" length="6.97" shape="145.05,52.03 145.70,53.89 145.61,55.28 145.17,56.74 144.74,58.78"/>
    </edge>
    <edge id=":493752767_0" function="internal">
        <lane id=":493752767_0_0" index="0" disallow="tram rail_urban rail rail_electric rail_fast ship container cable_car subway aircraft wheelchair scooter drone" speed="3.65" length="4.67" shape="67.73,1.33 67.18,-0.00 67.29,-0.89 68.07,-1.33 69.51,-1.33"/>
    </edge>
    <edge id=":6982851565_0" function="internal">
        <lane id=":6982851565_0_0" index="0" allow="bicycle" speed="5.56" length="4.51" width="2.00" shape="112.61,54.70 112.68,53.37 112.80,52.46 113.03,51.57 113.38,50.28"/>
    </edge>
    <edge id=":6982851567_0" function="internal">
        <lane id=":6982851567_0_0" index="0" disallow="tram rail_urban rail rail_electric rail_fast ship container cable_car subway aircraft wheelchair scooter drone" speed="13.89" length="4.97" shape="118.42,56.03 118.41,54.56 118.46,53.54 118.66,52.55 119.07,51.14"/>
    </edge>
    <edge id=":6982877655_0" function="internal">
        <lane id=":6982877655_0_0" index="0" allow="bicycle" speed="5.56" length="5.15" width="2.00" shape="117.47,68.52 116.42,67.42 115.79,66.59 115.28,65.67 114.61,64.29"/>
    </edge>
    <edge id=":6982877655_1" function="internal">
        <lane id=":6982877655_1_0" index="0" allow="bicycle" speed="4.32" length="4.26" width="2.00" shape="117.47,68.52 116.52,67.40 116.08,66.43 116.15,65.60 116.73,64.92"/>
    </edge>
    <edge id=":6982877655_2" function="internal">
        <lane id=":6982877655_2_0" index="0" allow="bicycle" speed="4.12" length="2.65" width="2.00" shape="114.28,66.68 114.72,66.23 114.92,65.68 114.89,65.04 114.61,64.29"/>
    </edge>
    <edge id=":6982877655_3" function="internal">
        <lane id=":6982877655_3_0" index="0" disallow="tram rail_urban rail rail_electric rail_fast ship container cable_car subway aircraft wheelchair scooter drone" speed="13.89" length="3.03" shape="114.62,67.17 117.08,65.41"/>
    </edge>
    <edge id=":6982877656_0" function="internal">
        <lane id=":6982877656_0_0" index="0" allow="bicycle" speed="5.37" length="3.47" width="2.00" shape="136.74,75.78 136.18,75.17 135.48,74.76 134.65,74.54 133.67,74.52"/>
    </edge>
    <edge id=":6982877656_1" function="internal">
        <lane id=":6982877656_1_0" index="0" disallow="tram rail_urban rail rail_electric rail_fast ship container cable_car subway aircraft wheelchair scooter drone" speed="13.89" length="3.66" shape="137.23,75.44 135.16,72.42"/>
    </edge>
    <edge id=":6982877656_2" function="internal">
        <lane id=":6982877656_2_0" index="0" allow="bicycle" speed="5.56" length="5.76" width="2.00" shape="139.17,72.98 137.61,73.68 136.51,74.10 135.37,74.35 133.67,74.52"/>
    </edge>
    <edge id=":6982877656_3" function="internal">
        <lane id=":6982877656_3_0" index="0" allow="bicycle" speed="5.16" length="4.89" width="2.00" shape="139.17,72.98 137.63,73.52 136.37,73.66 135.38,73.41 134.67,72.76"/>
    </edge>
    <edge id=":6982877657_0" function="internal">
        <lane id=":6982877657_0_0" index="0" allow="bicycle" speed="5.51" length="3.72" width="2.00" shape="150.36,56.53 150.37,57.24 150.65,58.01 151.20,58.83 152.03,59.70"/>
    </edge>
    <edge id=":6982877657_1" function="internal">
        <lane id=":6982877657_1_0" index="0" allow="bicycle" speed="5.56" length="6.26" width="2.00" shape="150.36,56.53 150.05,58.36 149.86,59.63 149.58,60.86 149.04,62.63"/>
    </edge>
    <edge id=":6982877657_2" function="internal">
        <lane id=":6982877657_2_0" index="0" disallow="tram rail_urban rail rail_electric rail_fast ship container cable_car subway aircraft wheelchair scooter drone" speed="13.89" length="5.05" shape="147.96,56.66 151.62,60.14"/>
    </edge>
    <edge id=":6982877657_3" function="internal">
        <lane id=":6982877657_3_0" index="0" allow="bicycle" speed="6.56" length="6.08" width="2.00" shape="147.54,57.09 148.59,58.36 149.18,59.70 149.33,61.13 149.04,62.63"/>
    </edge>
    <edge id=":6982877658_0" function="internal">
        <lane id=":6982877658_0_0" index="0" allow="bicycle" speed="6.01" length="4.18" width="2.00" shape="124.59,36.88 125.16,37.26 126.03,37.46 127.18,37.47 128.63,37.30"/>
    </edge>
    <edge id=":6982877658_1" function="internal">
        <lane id=":6982877658_1_0" index="0" disallow="tram rail_urban rail rail_electric rail_fast ship container cable_car subway aircraft wheelchair scooter drone" speed="13.89" length="3.81" shape="124.15,37.29 126.76,40.06"/>
    </edge>
    <edge id=":6982877658_2" function="internal">
        <lane id=":6982877658_2_0" index="0" allow="bicycle" speed="5.56" length="7.41" width="2.00" shape="121.71,39.77 123.64,38.73 125.02,38.10 126.47,37.69 128.63,37.30"/>
    </edge>
    <edge id=":6982877658_3" function="internal">
        <lane id=":6982877658_3_0" index="0" allow="bicycle" speed="5.81" length="5.91" width="2.00" shape="121.71,39.77 123.43,39.01 124.92,38.74 126.18,38.95 127.19,39.65"/>
    </edge>
    <edge id=":6982877666_0" function="internal">
        <lane id=":6982877666_0_0" index="0" allow="bicycle" speed="5.03" length="3.84" width="2.00" shape="122.04,72.21 121.14,71.79 120.23,71.67 119.34,71.85 118.46,72.35"/>
    </edge>
    <edge id=":6982877666_1" function="internal">
        <lane id=":6982877666_1_0" index="0" allow="bicycle" speed="5.56" length="5.70" width="2.00" shape="122.04,72.21 120.62,71.30 119.69,70.62 118.82,69.85 117.61,68.66"/>
    </edge>
    <edge id=":6982877666_2" function="internal">
        <lane id=":6982877666_2_0" index="0" disallow="tram rail_urban rail rail_electric rail_fast ship container cable_car subway aircraft wheelchair scooter drone" speed="13.89" length="3.93" shape="121.23,69.48 118.10,71.86"/>
    </edge>
    <edge id=":6982877666_3" function="internal">
        <lane id=":6982877666_3_0" index="0" allow="bicycle" speed="4.60" length="3.63" width="2.00" shape="120.86,69.01 120.05,69.47 119.24,69.56 118.43,69.29 117.61,68.66"/>
    </edge>
    <edge id=":6982877668_0" function="internal">
        <lane id=":6982877668_0_0" index="0" allow="bicycle" speed="5.56" length="5.54" width="2.00" shape="126.77,74.06 125.20,73.77 124.09,73.90 123.00,74.35 121.50,75.03"/>
    </edge>
    <edge id=":6982877668_1" function="internal">
        <lane id=":6982877668_1_0" index="0" allow="bicycle" speed="5.56" length="4.91" width="2.00" shape="126.77,74.06 125.35,73.70 124.38,73.44 123.46,73.06 122.21,72.32"/>
    </edge>
    <edge id=":6982877670_0" function="internal">
        <lane id=":6982877670_0_0" index="0" allow="bicycle" speed="5.56" length="4.18" width="2.00" shape="133.47,74.54 132.24,74.63 131.39,74.66 130.54,74.63 129.31,74.52"/>
    </edge>
    <edge id=":6982877674_0" function="internal">
        <lane id=":6982877674_0_0" index="0" allow="bicycle" speed="6.24" length="4.72" width="2.00" shape="145.13,68.76 144.13,69.77 143.46,70.79 143.10,71.79 143.07,72.80"/>
    </edge>
    <edge id=":6982877674_1" function="internal">
        <lane id=":6982877674_1_0" index="0" allow="bicycle" speed="5.56" length="7.16" width="2.00" shape="145.13,68.76 143.56,70.19 142.46,71.17 141.26,71.98 139.36,72.90"/>
    </edge>
    <edge id=":6982877674_2" function="internal">
        <lane id=":6982877674_2_0" index="0" disallow="tram rail_urban rail rail_electric rail_fast ship container cable_car subway aircraft wheelchair scooter drone" speed="13.89" length="4.09" shape="141.98,68.82 142.47,72.88"/>
    </edge>
    <edge id=":6982877674_3" function="internal">