<?xml version="1.0" encoding="UTF-8"?>

<!-- generated on 2024-09-03 01:37:55 by Eclipse SUMO duarouter Version 1.20.0
<configuration xmlns:xsi="http://www.w3.org/2001/XMLSchema-instance" xsi:noNamespaceSchemaLocation="http://sumo.dlr.de/xsd/duarouterConfiguration.xsd">

    <input>
        <net-file value="train_files/roundabout/middle/outputs/map(57)_dict/map(57)/map(57).net.xml"/>
        <route-files value="train_files/roundabout/middle/outputs/map(57)_dict/map(57)/map(57).trips.xml"/>
    </input>

    <output>
        <output-file value="train_files/roundabout/middle/outputs/map(57)_dict/map(57)/map(57).rou.xml"/>
    </output>

    <report>
        <ignore-errors value="true"/>
    </report>

</configuration>
-->

<routes xmlns:xsi="http://www.w3.org/2001/XMLSchema-instance" xsi:noNamespaceSchemaLocation="http://sumo.dlr.de/xsd/routes_file.xsd">
    <vehicle id="0" depart="0.00">
        <route edges="29110230 -29110230"/>
    </vehicle>
    <vehicle id="3" depart="3.60">
        <route edges="548557132#0 548557132#1 548557132#2 506103816 196866277 196866280#0 196866280#1 278585351 24978850#0 24978850#1 -29110230"/>
    </vehicle>
    <vehicle id="4" depart="4.80">
        <route edges="19922965#0 19922965#1 19922965#2 19922965#3 640112944 640112943 278585351 24978850#0 24978850#1 -29110230"/>
    </vehicle>
    <vehicle id="5" depart="6.00">
        <route edges="10345998 19923012 19923016"/>
    </vehicle>
    <vehicle id="6" depart="7.20">
        <route edges="-432864793#2 -432864793#1 -432864793#0 110919688#0 110919688#1 278585351 19922827#0 19922827#1 196868483 506103815 196868480 506103816 19922980#0 19922980#1 19922980#2"/>
    </vehicle>
    <vehicle id="11" depart="13.20">
        <route edges="19922965#0 19922965#1 19922965#2 19922965#3 640112944 640112943 278585351 19922827#0 19922827#1 196868483 506103815 196868480 506103816 19922980#0 19922980#1 19922980#2"/>
    </vehicle>
    <vehicle id="13" depart="15.60">
        <route edges="-432864793#2 -432864793#1 -432864793#0 110919688#0 110919688#1 278585351 24978850#0 24978850#1 -29110230"/>
    </vehicle>
    <vehicle id="16" depart="19.20">
        <route edges="19923100#0 19923100#1 640125752 196868480 506103816 196866277 24978874#0 24978874#1 432864794 432864793#0 432864793#1 432864793#2"/>
    </vehicle>
    <vehicle id="19" depart="22.80">
        <route edges="548557132#0 548557132#1 548557132#2 506103816 196866277 196866280#0 196866280#1 278585351 19922827#0 19922827#1 949812550 19923064#0 19923064#1"/>
    </vehicle>
    <vehicle id="20" depart="24.00">
        <route edges="29110230 -29110230"/>
    </vehicle>
    <vehicle id="22" depart="26.40">
        <route edges="-432864793#2 -432864793#1 -432864793#0 110919688#0 110919688#1 278585351 19922827#0 19922827#1 196868483 506103815 196868480 506103816 19922980#0 19922980#1 19922980#2"/>
    </vehicle>
    <vehicle id="23" depart="27.60">
        <route edges="-432864793#2 -432864793#1 -432864793#0 110919688#0 110919688#1 278585351 19922827#0 19922827#1 196868483 506103815 196868480 506103816 19922980#0 19922980#1 19922980#2"/>
    </vehicle>
    <vehicle id="25" depart="30.00">
        <route edges="19922965#0 19922965#1 19922965#2 19922965#3 640112944 640112943 278585351 19922827#0 19922827#1 196868483 506103815 196868480 506103816 19922980#0 19922980#1 19922980#2"/>
    </vehicle>
    <vehicle id="27" depart="32.40">
        <route edges="29110230 675974617 110919690 675974615#0 675974615#1 949812550 19923064#0 19923064#1"/>
    </vehicle>
    <vehicle id="30" depart="36.00">
        <route edges="548557132#0 548557132#1 548557132#2 506103816 196866277 196866280#0 196866280#1 278585351 19922827#0 19922827#1 949812550 19923064#0 19923064#1"/>
    </vehicle>
    <vehicle id="31" depart="37.20">
        <route edges="19923100#0 19923100#1 640125752 196868480 506103816 196866277 196866280#0 196866280#1 278585351 19922827#0 19922827#1 949812550 19923064#0 19923064#1"/>
    </vehicle>
    <vehicle id="34" depart="40.80">
        <route edges="19922965#0 19922965#1 19922965#2 19922965#3 640112944 640112943 278585351 19922827#0 19922827#1 196868483 506103815 196868480 506103816 19922980#0 19922980#1 19922980#2"/>
    </vehicle>
    <vehicle id="40" depart="48.00">
        <route edges="19923100#0 19923100#1 640125752 196868480 506103816 19922980#0 19922980#1 19922980#2"/>
    </vehicle>
    <vehicle id="41" depart="49.20">
        <route edges="29110230 675974617 110919690 675974615#0 675974615#1 196868483 506103815 196868480 506103816 196866277 24978874#0 24978874#1 432864794 432864793#0 432864793#1 432864793#2"/>
    </vehicle>
    <vehicle id="42" depart="50.40">
        <route edges="19922965#0 19922965#1 19922965#2 19922965#3 640112944 640112943 278585351 19922827#0 19922827#1 196868483 506103815 196868480 506103816 19922980#0 19922980#1 19922980#2"/>
    </vehicle>
    <vehicle id="44" depart="52.80">
        <route edges="-432864793#2 -432864793#1 -432864793#0 110919688#0 110919688#1 278585351 24978850#0 24978850#1 -29110230"/>
    </vehicle>
    <vehicle id="45" depart="54.00">
        <route edges="-432864793#2 -432864793#1 -432864793#0 110919688#0 110919688#1 278585351 19922827#0 19922827#1 949812550 19923064#0 19923064#1"/>
    </vehicle>
    <vehicle id="46" depart="55.20">
        <route edges="52985347 19922999 19923007"/>
    </vehicle>
    <vehicle id="49" depart="58.80">
        <route edges="548557132#0 548557132#1 548557132#2 506103816 196866277 24978874#0 24978874#1 432864794 432864793#0 432864793#1 432864793#2"/>
    </vehicle>
    <vehicle id="50" depart="60.00">
        <route edges="-432864793#2 -432864793#1 -432864793#0 110919688#0 110919688#1 278585351 19922827#0 19922827#1 196868483 548557131 4039300#0 4039300#1"/>
    </vehicle>
    <vehicle id="54" depart="64.80">
        <route edges="19923100#0 19923100#1 640125752 196868480 506103816 196866277 24978874#0 24978874#1 432864794 432864793#0 432864793#1 432864793#2"/>
    </vehicle>
    <vehicle id="55" depart="66.00">
        <route edges="548557132#0 548557132#1 548557132#2 506103816 19922980#0 19922980#1 19922980#2"/>
    </vehicle>
    <vehicle id="56" depart="67.20">
        <route edges="19923100#0 19923100#1 640125752 196868480 506103816 19922980#0 19922980#1 19922980#2"/>
    </vehicle>
    <vehicle id="57" depart="68.40">
        <route edges="548557132#0 548557132#1 548557132#2 506103816 196866277 24978874#0 24978874#1 432864794 432864793#0 432864793#1 432864793#2"/>
    </vehicle>
    <vehicle id="58" depart="69.60">
        <route edges="19922965#0 19922965#1 19922965#2 19922965#3 640112944 640112943 278585351 19922827#0 19922827#1 949812550 19923064#0 19923064#1"/>
    </vehicle>
    <vehicle id="59" depart="70.80">
        <route edges="29110230 675974617 110919690 675974615#0 675974615#1 196868483 506103815 196868480 506103816 19922980#0 19922980#1 19922980#2"/>
    </vehicle>
    <vehicle id="63" depart="75.60">
        <route edges="-432864793#2 -432864793#1 -432864793#0 432864793#0 432864793#1 432864793#2"/>
    </vehicle>
    <vehicle id="64" depart="76.80">
        <route edges="548557132#0 548557132#1 548557132#2 506103816 196866277 196866280#0 196866280#1 278585351 19922827#0 19922827#1 196868483 548557131 4039300#0 4039300#1"/>
    </vehicle>
    <vehicle id="65" depart="78.00">
        <route edges="19922965#0 19922965#1 19922965#2 19922965#3 640112944 640112943 278585351 24978850#0 24978850#1 -29110230"/>
    </vehicle>
    <vehicle id="66" depart="79.20">
        <route edges="548557132#0 548557132#1 548557132#2 506103816 196866277 24978874#0 24978874#1 432864794 432864793#0 432864793#1 432864793#2"/>
    </vehicle>
    <vehicle id="68" depart="81.60">
        <route edges="-432864793#2 -432864793#1 -432864793#0 110919688#0 110919688#1 278585351 19922827#0 19922827#1 196868483 548557131 4039300#0 4039300#1"/>
    </vehicle>
    <vehicle id="72" depart="86.40">
        <route edges="19922965#0 19922965#1 19922965#2 19922965#3 640112944 640112943 278585351 19922827#0 19922827#1 196868483 506103815 196868480 506103816 19922980#0 19922980#1 19922980#2"/>
    </vehicle>
    <vehicle id="73" depart="87.60">
        <route edges="19923100#0 19923100#1 4039300#0 4039300#1"/>
    </vehicle>
    <vehicle id="75" depart="90.00">
        <route edges="548557132#0 548557132#1 548557132#2 506103816 196866277 196866280#0 196866280#1 278585351 19922827#0 19922827#1 949812550 19923064#0 19923064#1"/>
    </vehicle>
    <vehicle id="77" depart="92.40">
        <route edges="-432864793#2 -432864793#1 -432864793#0 110919688#0 110919688#1 278585351 19922827#0 19922827#1 196868483 506103815 196868480 506103816 19922980#0 19922980#1 19922980#2"/>
    </vehicle>
    <vehicle id="78" depart="93.60">
        <route edges="19922965#0 19922965#1 19922965#2 19922965#3 640112944 640112943 278585351 19922827#0 19922827#1 949812550 19923064#0 19923064#1"/>
    </vehicle>
    <vehicle id="80" depart="96.00">
        <route edges="-432864793#2 -432864793#1 -432864793#0 110919688#0 110919688#1 278585351 19922827#0 19922827#1 949812550 19923064#0 19923064#1"/>
    </vehicle>
    <vehicle id="82" depart="98.40">
        <route edges="548557132#0 548557132#1 548557132#2 506103816 196866277 196866280#0 196866280#1 278585351 24978850#0 24978850#1 -29110230"/>
    </vehicle>
    <vehicle id="86" depart="103.20">
        <route edges="19923100#0 19923100#1 4039300#0 4039300#1"/>
    </vehicle>
    <vehicle id="91" depart="109.20">
        <route edges="548557132#0 548557132#1 548557132#2 506103816 196866277 196866280#0 196866280#1 278585351 24978850#0 24978850#1 -29110230"/>
    </vehicle>
    <vehicle id="93" depart="111.60">
        <route edges="548557132#0 548557132#1 548557132#2 506103816 19922980#0 19922980#1 19922980#2"/>
    </vehicle>
    <vehicle id="94" depart="112.80">
        <route edges="10345998 19923012 19923016"/>
    </vehicle>
    <vehicle id="95" depart="114.00">
        <route edges="19922965#0 19922965#1 19922965#2 19922965#3 640112944 640112943 278585351 19922827#0 19922827#1 196868483 506103815 196868480 506103816 19922980#0 19922980#1 19922980#2"/>
    </vehicle>
    <vehicle id="97" depart="116.40">
        <route edges="19923100#0 19923100#1 640125752 196868480 506103816 196866277 24978874#0 24978874#1 432864794 432864793#0 432864793#1 432864793#2"/>
    </vehicle>
    <vehicle id="98" depart="117.60">
        <route edges="19923100#0 19923100#1 640125752 196868480 506103816 196866277 196866280#0 196866280#1 278585351 24978850#0 24978850#1 -29110230"/>
    </vehicle>
    <vehicle id="99" depart="118.80">
        <route edges="548557132#0 548557132#1 548557132#2 506103816 196866277 196866280#0 196866280#1 278585351 19922827#0 19922827#1 196868483 548557131 4039300#0 4039300#1"/>
    </vehicle>
    <vehicle id="100" depart="120.00">
        <route edges="548557132#0 548557132#1 548557132#2 506103816 196866277 24978874#0 24978874#1 432864794 432864793#0 432864793#1 432864793#2"/>
    </vehicle>
    <vehicle id="102" depart="122.40">
        <route edges="19923100#0 19923100#1 640125752 196868480 506103816 19922980#0 19922980#1 19922980#2"/>
    </vehicle>
    <vehicle id="103" depart="123.60">
        <route edges="19922965#0 19922965#1 19922965#2 19922965#3 640112944 640112943 278585351 24978850#0 24978850#1 -29110230"/>
    </vehicle>
    <vehicle id="104" depart="124.80">
        <route edges="19922965#0 19922965#1 19922965#2 19922965#3 432864794 432864793#0 432864793#1 432864793#2"/>
    </vehicle>
    <vehicle id="107" depart="128.40">
        <route edges="548557132#0 548557132#1 548557132#2 506103816 196866277 24978874#0 24978874#1 432864794 432864793#0 432864793#1 432864793#2"/>
    </vehicle>
    <vehicle id="108" depart="129.60">
        <route edges="19923100#0 19923100#1 4039300#0 4039300#1"/>
    </vehicle>
    <vehicle id="110" depart="132.00">
        <route edges="548557132#0 548557132#1 548557132#2 506103816 196866277 196866280#0 196866280#1 278585351 19922827#0 19922827#1 949812550 19923064#0 19923064#1"/>
    </vehicle>
    <vehicle id="111" depart="133.20">
        <route edges="19923100#0 19923100#1 4039300#0 4039300#1"/>
    </vehicle>
    <vehicle id="112" depart="134.40">
        <route edges="-432864793#2 -432864793#1 -432864793#0 110919688#0 110919688#1 278585351 19922827#0 19922827#1 949812550 19923064#0 19923064#1"/>
    </vehicle>
    <vehicle id="113" depart="135.60">
        <route edges="19923100#0 19923100#1 4039300#0 4039300#1"/>
    </vehicle>
    <vehicle id="115" depart="138.00">
        <route edges="-432864793#2 -432864793#1 -432864793#0 110919688#0 110919688#1 278585351 19922827#0 19922827#1 196868483 506103815 196868480 506103816 19922980#0 19922980#1 19922980#2"/>
    </vehicle>
    <vehicle id="116" depart="139.20">
        <route edges="29110230 675974617 110919690 675974615#0 675974615#1 949812550 19923064#0 19923064#1"/>
    </vehicle>
    <vehicle id="118" depart="141.60">
        <route edges="548557132#0 548557132#1 548557132#2 506103816 19922980#0 19922980#1 19922980#2"/>
    </vehicle>
    <vehicle id="119" depart="142.80">
        <route edges="29110230 675974617 110919690 675974615#0 675974615#1 949812550 19923064#0 19923064#1"/>
    </vehicle>
    <vehicle id="120" depart="144.00">
        <route edges="19922965#0 19922965#1 19922965#2 19922965#3 640112944 640112943 278585351 19922827#0 19922827#1 949812550 19923064#0 19923064#1"/>
    </vehicle>
    <vehicle id="121" depart="145.20">
        <route edges="19923100#0 19923100#1 640125752 196868480 506103816 196866277 24978874#0 24978874#1 432864794 432864793#0 432864793#1 432864793#2"/>
    </vehicle>
    <vehicle id="125" depart="150.00">
        <route edges="19922965#0 19922965#1 19922965#2 19922965#3 640112944 640112943 278585351 19922827#0 19922827#1 196868483 548557131 4039300#0 4039300#1"/>
    </vehicle>
    <vehicle id="127" depart="152.40">
        <route edges="548557132#0 548557132#1 548557132#2 506103816 196866277 24978874#0 24978874#1 432864794 432864793#0 432864793#1 432864793#2"/>
    </vehicle>
    <vehicle id="128" depart="153.60">
        <route edges="-432864793#2 -432864793#1 -432864793#0 110919688#0 110919688#1 278585351 19922827#0 19922827#1 196868483 506103815 196868480 506103816 19922980#0 19922980#1 19922980#2"/>
    </vehicle>
    <vehicle id="130" depart="156.00">
        <route edges="548557132#0 548557132#1 548557132#2 506103816 196866277 24978874#0 24978874#1 432864794 432864793#0 432864793#1 432864793#2"/>
    </vehicle>
    <vehicle id="131" depart="157.20">
        <route edges="19922965#0 19922965#1 19922965#2 19922965#3 640112944 640112943 278585351 19922827#0 19922827#1 196868483 506103815 196868480 506103816 19922980#0 19922980#1 19922980#2"/>
    </vehicle>
    <vehicle id="133" depart="159.60">
        <route edges="29110230 675974617 110919690 675974615#0 675974615#1 196868483 506103815 196868480 506103816 196866277 24978874#0 24978874#1 432864794 432864793#0 432864793#1 432864793#2"/>
    </vehicle>
    <vehicle id="134" depart="160.80">
        <route edges="29110230 -29110230"/>
    </vehicle>
    <vehicle id="135" depart="162.00">
        <route edges="52985347 19922999 19923007"/>
    </vehicle>
    <vehicle id="136" depart="163.20">
        <route edges="29110230 675974617 110919690 675974615#0 675974615#1 196868483 506103815 196868480 506103816 196866277 24978874#0 24978874#1 432864794 432864793#0 432864793#1 432864793#2"/>
    </vehicle>
    <vehicle id="137" depart="164.40">
        <route edges="-432864793#2 -432864793#1 -432864793#0 110919688#0 110919688#1 278585351 24978850#0 24978850#1 -29110230"/>
    </vehicle>
    <vehicle id="141" depart="169.20">
        <route edges="29110230 675974617 110919690 675974615#0 675974615#1 196868483 506103815 196868480 506103816 19922980#0 19922980#1 19922980#2"/>
    </vehicle>
    <vehicle id="142" depart="170.40">
        <route edges="19923100#0 19923100#1 640125752 196868480 506103816 196866277 24978874#0 24978874#1 432864794 432864793#0 432864793#1 432864793#2"/>
    </vehicle>
    <vehicle id="144" depart="172.80">
        <route edges="19922965#0 19922965#1 19922965#2 19922965#3 640112944 640112943 278585351 19922827#0 19922827#1 196868483 506103815 196868480 506103816 19922980#0 19922980#1 19922980#2"/>
    </vehicle>
    <vehicle id="145" depart="174.00">
        <route edges="-432864793#2 -432864793#1 -432864793#0 110919688#0 110919688#1 278585351 19922827#0 19922827#1 196868483 548557131 4039300#0 4039300#1"/>
    </vehicle>
    <vehicle id="146" depart="175.20">
        <route edges="29110230 675974617 110919690 675974615#0 675974615#1 196868483 506103815 196868480 506103816 19922980#0 19922980#1 19922980#2"/>
    </vehicle>
    <vehicle id="148" depart="177.60">
        <route edges="19922965#0 19922965#1 19922965#2 19922965#3 640112944 640112943 278585351 24978850#0 24978850#1 -29110230"/>
    </vehicle>
    <vehicle id="149" depart="178.80">
        <route edges="-432864793#2 -432864793#1 -432864793#0 432864793#0 432864793#1 432864793#2"/>
    </vehicle>
    <vehicle id="153" depart="183.60">
        <route edges="19922965#0 19922965#1 19922965#2 19922965#3 432864794 432864793#0 432864793#1 432864793#2"/>
    </vehicle>
    <vehicle id="155" depart="186.00">
        <route edges="548557132#0 548557132#1 548557132#2 506103816 19922980#0 19922980#1 19922980#2"/>
    </vehicle>
    <vehicle id="158" depart="189.60">
        <route edges="19922965#0 19922965#1 19922965#2 19922965#3 640112944 640112943 278585351 19922827#0 19922827#1 949812550 19923064#0 19923064#1"/>
    </vehicle>
    <vehicle id="160" depart="192.00">
        <route edges="548557132#0 548557132#1 548557132#2 506103816 196866277 24978874#0 24978874#1 432864794 432864793#0 432864793#1 432864793#2"/>
    </vehicle>
    <vehicle id="162" depart="194.40">
        <route edges="-432864793#2 -432864793#1 -432864793#0 110919688#0 110919688#1 278585351 19922827#0 19922827#1 196868483 548557131 4039300#0 4039300#1"/>
    </vehicle>
    <vehicle id="163" depart="195.60">
        <route edges="19922965#0 19922965#1 19922965#2 19922965#3 432864794 432864793#0 432864793#1 432864793#2"/>
    </vehicle>
    <vehicle id="167" depart="200.40">
        <route edges="548557132#0 548557132#1 548557132#2 506103816 196866277 24978874#0 24978874#1 432864794 432864793#0 432864793#1 432864793#2"/>
    </vehicle>
    <vehicle id="171" depart="205.20">
        <route edges="-432864793#2 -432864793#1 -432864793#0 110919688#0 110919688#1 278585351 19922827#0 19922827#1 196868483 506103815 196868480 506103816 19922980#0 19922980#1 19922980#2"/>
    </vehicle>
    <vehicle id="172" depart="206.40">
        <route edges="19922965#0 19922965#1 19922965#2 19922965#3 432864794 432864793#0 432864793#1 432864793#2"/>
    </vehicle>
    <vehicle id="173" depart="207.60">
        <route edges="548557132#0 548557132#1 548557132#2 506103816 19922980#0 19922980#1 19922980#2"/>
    </vehicle>
    <vehicle id="176" depart="211.20">
        <route edges="548557132#0 548557132#1 548557132#2 506103816 196866277 196866280#0 196866280#1 278585351 24978850#0 24978850#1 -29110230"/>
    </vehicle>
    <vehicle id="177" depart="212.40">
        <route edges="548557132#0 548557132#1 548557132#2 506103816 19922980#0 19922980#1 19922980#2"/>
    </vehicle>
    <vehicle id="178" depart="213.60">
        <route edges="548557132#0 548557132#1 548557132#2 506103816 19922980#0 19922980#1 19922980#2"/>
    </vehicle>
    <vehicle id="180" depart="216.00">
        <route edges="52985347 19922999 19923007"/>
    </vehicle>
    <vehicle id="182" depart="218.40">
        <route edges="19922965#0 19922965#1 19922965#2 19922965#3 640112944 640112943 278585351 19922827#0 19922827#1 949812550 19923064#0 19923064#1"/>
    </vehicle>
    <vehicle id="184" depart="220.80">
        <route edges="-432864793#2 -432864793#1 -432864793#0 432864793#0 432864793#1 432864793#2"/>
    </vehicle>
    <vehicle id="185" depart="222.00">
        <route edges="19923100#0 19923100#1 4039300#0 4039300#1"/>
    </vehicle>
    <vehicle id="187" depart="224.40">
        <route edges="19922965#0 19922965#1 19922965#2 19922965#3 640112944 640112943 278585351 24978850#0 24978850#1 -29110230"/>
    </vehicle>
    <vehicle id="189" depart="226.80">
        <route edges="19922965#0 19922965#1 19922965#2 19922965#3 640112944 640112943 278585351 19922827#0 19922827#1 196868483 548557131 4039300#0 4039300#1"/>
    </vehicle>
    <vehicle id="190" depart="228.00">
        <route edges="52985347 19922999 19923007"/>
    </vehicle>
    <vehicle id="194" depart="232.80">
        <route edges="548557132#0 548557132#1 548557132#2 506103816 196866277 196866280#0 196866280#1 278585351 19922827#0 19922827#1 949812550 19923064#0 19923064#1"/>
    </vehicle>
    <vehicle id="195" depart="234.00">
        <route edges="548557132#0 548557132#1 548557132#2 506103816 196866277 196866280#0 196866280#1 278585351 19922827#0 19922827#1 949812550 19923064#0 19923064#1"/>
    </vehicle>
    <vehicle id="198" depart="237.60">
        <route edges="19923100#0 19923100#1 640125752 196868480 506103816 196866277 196866280#0 196866280#1 278585351 19922827#0 19922827#1 949812550 19923064#0 19923064#1"/>
    </vehicle>
    <vehicle id="200" depart="240.00">
        <route edges="19923100#0 19923100#1 640125752 196868480 506103816 19922980#0 19922980#1 19922980#2"/>
    </vehicle>
    <vehicle id="201" depart="241.20">
        <route edges="19923100#0 19923100#1 640125752 196868480 506103816 196866277 24978874#0 24978874#1 432864794 432864793#0 432864793#1 432864793#2"/>
    </vehicle>
    <vehicle id="206" depart="247.20">
        <route edges="29110230 675974617 110919690 675974615#0 675974615#1 196868483 506103815 196868480 506103816 19922980#0 19922980#1 19922980#2"/>
    </vehicle>
    <vehicle id="208" depart="249.60">
        <route edges="10345998 19923012 19923016"/>
    </vehicle>
    <vehicle id="210" depart="252.00">
        <route edges="19922965#0 19922965#1 19922965#2 19922965#3 640112944 640112943 278585351 19922827#0 19922827#1 949812550 19923064#0 19923064#1"/>
    </vehicle>
    <vehicle id="212" depart="254.40">
        <route edges="19923100#0 19923100#1 640125752 196868480 506103816 19922980#0 19922980#1 19922980#2"/>
    </vehicle>
    <vehicle id="213" depart="255.60">
        <route edges="29110230 -29110230"/>
    </vehicle>
    <vehicle id="217" depart="260.40">
        <route edges="19923100#0 19923100#1 640125752 196868480 506103816 196866277 196866280#0 196866280#1 278585351 24978850#0 24978850#1 -29110230"/>
    </vehicle>
    <vehicle id="219" depart="262.80">
        <route edges="19923100#0 19923100#1 4039300#0 4039300#1"/>
    </vehicle>
    <vehicle id="220" depart="264.00">
        <route edges="29110230 675974617 110919690 675974615#0 675974615#1 196868483 506103815 196868480 506103816 196866277 24978874#0 24978874#1 432864794 432864793#0 432864793#1 432864793#2"/>
    </vehicle>
    <vehicle id="221" depart="265.20">
        <route edges="29110230 675974617 110919690 675974615#0 675974615#1 196868483 506103815 196868480 506103816 196866277 24978874#0 24978874#1 432864794 432864793#0 432864793#1 432864793#2"/>
    </vehicle>
    <vehicle id="222" depart="266.40">
        <route edges="548557132#0 548557132#1 548557132#2 506103816 196866277 196866280#0 196866280#1 278585351 19922827#0 19922827#1 949812550 19923064#0 19923064#1"/>
    </vehicle>
    <vehicle id="225" depart="270.00">
        <route edges="548557132#0 548557132#1 548557132#2 506103816 196866277 196866280#0 196866280#1 278585351 19922827#0 19922827#1 196868483 548557131 4039300#0 4039300#1"/>
    </vehicle>
    <vehicle id="226" depart="271.20">
        <route edges="19923100#0 19923100#1 640125752 196868480 506103816 19922980#0 19922980#1 19922980#2"/>
    </vehicle>
    <vehicle id="229" depart="274.80">
        <route edges="29110230 675974617 110919690 675974615#0 675974615#1 196868483 506103815 196868480 506103816 19922980#0 19922980#1 19922980#2"/>
    </vehicle>
    <vehicle id="232" depart="278.40">
        <route edges="19923100#0 19923100#1 640125752 196868480 506103816 196866277 196866280#0 196866280#1 278585351 24978850#0 24978850#1 -29110230"/>
    </vehicle>
    <vehicle id="234" depart="280.80">
        <route edges="29110230 -29110230"/>
    </vehicle>
    <vehicle id="236" depart="283.20">
        <route edges="19922965#0 19922965#1 19922965#2 19922965#3 640112944 640112943 278585351 19922827#0 19922827#1 196868483 506103815 196868480 506103816 19922980#0 19922980#1 19922980#2"/>
    </vehicle>
    <vehicle id="237" depart="284.40">
        <route edges="19922965#0 19922965#1 19922965#2 19922965#3 432864794 432864793#0 432864793#1 432864793#2"/>
    </vehicle>
    <vehicle id="238" depart="285.60">
        <route edges="29110230 675974617 110919690 675974615#0 675974615#1 949812550 19923064#0 19923064#1"/>
    </vehicle>
    <vehicle id="240" depart="288.00">
        <route edges="19922965#0 19922965#1 19922965#2 19922965#3 640112944 640112943 278585351 24978850#0 24978850#1 -29110230"/>
    </vehicle>
    <vehicle id="241" depart="289.20">
        <route edges="19922965#0 19922965#1 19922965#2 19922965#3 640112944 640112943 278585351 19922827#0 19922827#1 196868483 548557131 4039300#0 4039300#1"/>
    </vehicle>
    <vehicle id="243" depart="291.60">
        <route edges="19922965#0 19922965#1 19922965#2 19922965#3 640112944 640112943 278585351 19922827#0 19922827#1 196868483 548557131 4039300#0 4039300#1"/>
    </vehicle>
    <vehicle id="244" depart="292.80">
        <route edges="19923100#0 19923100#1 640125752 196868480 506103816 196866277 196866280#0 196866280#1 278585351 19922827#0 19922827#1 949812550 19923064#0 19923064#1"/>
    </vehicle>
    <vehicle id="246" depart="295.20">
        <route edges="19923100#0 19923100#1 640125752 196868480 506103816 196866277 196866280#0 196866280#1 278585351 24978850#0 24978850#1 -29110230"/>
    </vehicle>
    <vehicle id="247" depart="296.40">
        <route edges="19922965#0 19922965#1 19922965#2 19922965#3 640112944 640112943 278585351 19922827#0 19922827#1 949812550 19923064#0 19923064#1"/>
    </vehicle>
    <vehicle id="248" depart="297.60">
        <route edges="19922965#0 19922965#1 19922965#2 19922965#3 640112944 640112943 278585351 19922827#0 19922827#1 196868483 506103815 196868480 506103816 19922980#0 19922980#1 19922980#2"/>
    </vehicle>
    <vehicle id="249" depart="298.80">
        <route edges="19923100#0 19923100#1 640125752 196868480 506103816 196866277 196866280#0 196866280#1 278585351 24978850#0 24978850#1 -29110230"/>
    </vehicle>
    <vehicle id="250" depart="300.00">
        <route edges="29110230 -29110230"/>
    </vehicle>
    <vehicle id="252" depart="302.40">
        <route edges="-432864793#2 -432864793#1 -432864793#0 110919688#0 110919688#1 278585351 19922827#0 19922827#1 949812550 19923064#0 19923064#1"/>
    </vehicle>
    <vehicle id="256" depart="307.20">
        <route edges="52985347 19922999 19923007"/>
    </vehicle>
    <vehicle id="261" depart="313.20">
        <route edges="29110230 675974617 110919690 675974615#0 675974615#1 196868483 548557131 4039300#0 4039300#1"/>
    </vehicle>
    <vehicle id="262" depart="314.40">
        <route edges="29110230 675974617 110919690 675974615#0 675974615#1 196868483 548557131 4039300#0 4039300#1"/>
    </vehicle>
    <vehicle id="263" depart="315.60">
        <route edges="548557132#0 548557132#1 548557132#2 506103816 19922980#0 19922980#1 19922980#2"/>
    </vehicle>
    <vehicle id="264" depart="316.80">
        <route edges="-432864793#2 -432864793#1 -432864793#0 110919688#0 110919688#1 278585351 19922827#0 19922827#1 196868483 506103815 196868480 506103816 19922980#0 19922980#1 19922980#2"/>
    </vehicle>
    <vehicle id="265" depart="318.00">
        <route edges="-432864793#2 -432864793#1 -432864793#0 110919688#0 110919688#1 278585351 19922827#0 19922827#1 949812550 19923064#0 19923064#1"/>
    </vehicle>
    <vehicle id="266" depart="319.20">
        <route edges="19923100#0 19923100#1 640125752 196868480 506103816 19922980#0 19922980#1 19922980#2"/>
    </vehicle>
    <vehicle id="267" depart="320.40">
        <route edges="29110230 675974617 110919690 675974615#0 675974615#1 196868483 548557131 4039300#0 4039300#1"/>
    </vehicle>
    <vehicle id="271" depart="325.20">
        <route edges="-432864793#2 -432864793#1 -432864793#0 110919688#0 110919688#1 278585351 24978850#0 24978850#1 -29110230"/>
    </vehicle>
    <vehicle id="272" depart="326.40">
        <route edges="19922965#0 19922965#1 19922965#2 19922965#3 640112944 640112943 278585351 19922827#0 19922827#1 949812550 19923064#0 19923064#1"/>
    </vehicle>
    <vehicle id="275" depart="330.00">
        <route edges="29110230 675974617 110919690 675974615#0 675974615#1 949812550 19923064#0 19923064#1"/>
    </vehicle>
    <vehicle id="276" depart="331.20">
        <route edges="-432864793#2 -432864793#1 -432864793#0 110919688#0 110919688#1 278585351 19922827#0 19922827#1 196868483 548557131 4039300#0 4039300#1"/>
    </vehicle>
    <vehicle id="278" depart="333.60">
        <route edges="-432864793#2 -432864793#1 -432864793#0 432864793#0 432864793#1 432864793#2"/>
    </vehicle>
    <vehicle id="279" depart="334.80">
        <route edges="52985347 19922999 19923007"/>
    </vehicle>
    <vehicle id="283" depart="339.60">
        <route edges="-432864793#2 -432864793#1 -432864793#0 432864793#0 432864793#1 432864793#2"/>
    </vehicle>
    <vehicle id="284" depart="340.80">
        <route edges="29110230 675974617 110919690 675974615#0 675974615#1 196868483 548557131 4039300#0 4039300#1"/>
    </vehicle>
    <vehicle id="289" depart="346.80">
        <route edges="19923100#0 19923100#1 4039300#0 4039300#1"/>
    </vehicle>
    <vehicle id="292" depart="350.40">