<?xml version="1.0" encoding="UTF-8"?>

<!-- generated on 2024-09-03 01:37:55.386928 by randomTrips.py UNKNOWN
<configuration>
    <net-file value="train_files/roundabout/middle/outputs/map(57)_dict/map(57)/map(57).net.xml"/>
    <output-trip-file value="train_files/roundabout/middle/outputs/map(57)_dict/map(57)/map(57).trips.xml"/>
    <fringe-factor value="max"/>
    <validate value="True"/>
    <period value="1.2"/>
</configuration>
-->

<!-- generated on 2024-09-03 01:37:55 by Eclipse SUMO duarouter Version 1.20.0
<configuration xmlns:xsi="http://www.w3.org/2001/XMLSchema-instance" xsi:noNamespaceSchemaLocation="http://sumo.dlr.de/xsd/duarouterConfiguration.xsd">

    <input>
        <net-file value="train_files/roundabout/middle/outputs/map(57)_dict/map(57)/map(57).net.xml"/>
        <route-files value="train_files/roundabout/middle/outputs/map(57)_dict/map(57)/map(57).trips.xml"/>
    </input>

    <output>
        <output-file value="train_files/roundabout/middle/outputs/map(57)_dict/map(57)/map(57).trips.xml.tmp"/>
        <alternatives-output value="NUL"/>
        <write-trips value="true"/>
    </output>

    <time>
        <begin value="0"/>
        <end value="3600"/>
    </time>

    <report>
        <no-warnings value="true"/>
        <ignore-errors value="true"/>
        <no-step-log value="true"/>
    </report>

</configuration>
-->

<routes xmlns:xsi="http://www.w3.org/2001/XMLSchema-instance" xsi:noNamespaceSchemaLocation="http://sumo.dlr.de/xsd/routes_file.xsd">
    <trip id="0" depart="0.00" from="29110230" to="-29110230"/>
    <trip id="3" depart="3.60" from="548557132#0" to="-29110230"/>
    <trip id="4" depart="4.80" from="19922965#0" to="-29110230"/>
    <trip id="5" depart="6.00" from="10345998" to="19923016"/>
    <trip id="6" depart="7.20" from="-432864793#2" to="19922980#2"/>
    <trip id="11" depart="13.20" from="19922965#0" to="19922980#2"/>
    <trip id="13" depart="15.60" from="-432864793#2" to="-29110230"/>
    <trip id="16" depart="19.20" from="19923100#0" to="432864793#2"/>
    <trip id="19" depart="22.80" from="548557132#0" to="19923064#1"/>
    <trip id="20" depart="24.00" from="29110230" to="-29110230"/>
    <trip id="22" depart="26.40" from="-432864793#2" to="19922980#2"/>
    <trip id="23" depart="27.60" from="-432864793#2" to="19922980#2"/>
    <trip id="25" depart="30.00" from="19922965#0" to="19922980#2"/>
    <trip id="27" depart="32.40" from="29110230" to="19923064#1"/>
    <trip id="30" depart="36.00" from="548557132#0" to="19923064#1"/>
    <trip id="31" depart="37.20" from="19923100#0" to="19923064#1"/>
    <trip id="34" depart="40.80" from="19922965#0" to="19922980#2"/>
    <trip id="40" depart="48.00" from="19923100#0" to="19922980#2"/>
    <trip id="41" depart="49.20" from="29110230" to="432864793#2"/>
    <trip id="42" depart="50.40" from="19922965#0" to="19922980#2"/>
    <trip id="44" depart="52.80" from="-432864793#2" to="-29110230"/>
    <trip id="45" depart="54.00" from="-432864793#2" to="19923064#1"/>
    <trip id="46" depart="55.20" from="52985347" to="19923007"/>
    <trip id="49" depart="58.80" from="548557132#0" to="432864793#2"/>
    <trip id="50" depart="60.00" from="-432864793#2" to="4039300#1"/>
    <trip id="54" depart="64.80" from="19923100#0" to="432864793#2"/>
    <trip id="55" depart="66.00" from="548557132#0" to="19922980#2"/>
    <trip id="56" depart="67.20" from="19923100#0" to="19922980#2"/>
    <trip id="57" depart="68.40" from="548557132#0" to="432864793#2"/>
    <trip id="58" depart="69.60" from="19922965#0" to="19923064#1"/>
    <trip id="59" depart="70.80" from="29110230" to="19922980#2"/>
    <trip id="63" depart="75.60" from="-432864793#2" to="432864793#2"/>
    <trip id="64" depart="76.80" from="548557132#0" to="4039300#1"/>
    <trip id="65" depart="78.00" from="19922965#0" to="-29110230"/>
    <trip id="66" depart="79.20" from="548557132#0" to="432864793#2"/>
    <trip id="68" depart="81.60" from="-432864793#2" to="4039300#1"/>
    <trip id="72" depart="86.40" from="19922965#0" to="19922980#2"/>
    <trip id="73" depart="87.60" from="19923100#0" to="4039300#1"/>
    <trip id="75" depart="90.00" from="548557132#0" to="19923064#1"/>
    <trip id="77" depart="92.40" from="-432864793#2" to="19922980#2"/>
    <trip id="78" depart="93.60" from="19922965#0" to="19923064#1"/>
    <trip id="80" depart="96.00" from="-432864793#2" to="19923064#1"/>
    <trip id="82" depart="98.40" from="548557132#0" to="-29110230"/>
    <trip id="86" depart="103.20" from="19923100#0" to="4039300#1"/>
    <trip id="91" depart="109.20" from="548557132#0" to="-29110230"/>
    <trip id="93" depart="111.60" from="548557132#0" to="19922980#2"/>
    <trip id="94" depart="112.80" from="10345998" to="19923016"/>
    <trip id="95" depart="114.00" from="19922965#0" to="19922980#2"/>
    <trip id="97" depart="116.40" from="19923100#0" to="432864793#2"/>
    <trip id="98" depart="117.60" from="19923100#0" to="-29110230"/>
    <trip id="99" depart="118.80" from="548557132#0" to="4039300#1"/>
    <trip id="100" depart="120.00" from="548557132#0" to="432864793#2"/>
    <trip id="102" depart="122.40" from="19923100#0" to="19922980#2"/>
    <trip id="103" depart="123.60" from="19922965#0" to="-29110230"/>
    <trip id="104" depart="124.80" from="19922965#0" to="432864793#2"/>
    <trip id="107" depart="128.40" from="548557132#0" to="432864793#2"/>
    <trip id="108" depart="129.60" from="19923100#0" to="4039300#1"/>
    <trip id="110" depart="132.00" from="548557132#0" to="19923064#1"/>
    <trip id="111" depart="133.20" from="19923100#0" to="4039300#1"/>
    <trip id="112" depart="134.40" from="-432864793#2" to="19923064#1"/>
    <trip id="113" depart="135.60" from="19923100#0" to="4039300#1"/>
    <trip id="115" depart="138.00" from="-432864793#2" to="19922980#2"/>
    <trip id="116" depart="139.20" from="29110230" to="19923064#1"/>
    <trip id="118" depart="141.60" from="548557132#0" to="19922980#2"/>
    <trip id="119" depart="142.80" from="29110230" to="19923064#1"/>
    <trip id="120" depart="144.00" from="19922965#0" to="19923064#1"/>
    <trip id="121" depart="145.20" from="19923100#0" to="432864793#2"/>
    <trip id="125" depart="150.00" from="19922965#0" to="4039300#1"/>
    <trip id="127" depart="152.40" from="548557132#0" to="432864793#2"/>
    <trip id="128" depart="153.60" from="-432864793#2" to="19922980#2"/>
    <trip id="130" depart="156.00" from="548557132#0" to="432864793#2"/>
    <trip id="131" depart="157.20" from="19922965#0" to="19922980#2"/>
    <trip id="133" depart="159.60" from="29110230" to="432864793#2"/>
    <trip id="134" depart="160.80" from="29110230" to="-29110230"/>
    <trip id="135" depart="162.00" from="52985347" to="19923007"/>
    <trip id="136" depart="163.20" from="29110230" to="432864793#2"/>
    <trip id="137" depart="164.40" from="-432864793#2" to="-29110230"/>
    <trip id="141" depart="169.20" from="29110230" to="19922980#2"/>
    <trip id="142" depart="170.40" from="19923100#0" to="432864793#2"/>
    <trip id="144" depart="172.80" from="19922965#0" to="19922980#2"/>
    <trip id="145" depart="174.00" from="-432864793#2" to="4039300#1"/>
    <trip id="146" depart="175.20" from="29110230" to="19922980#2"/>
    <trip id="148" depart="177.60" from="19922965#0" to="-29110230"/>
    <trip id="149" depart="178.80" from="-432864793#2" to="432864793#2"/>
    <trip id="153" depart="183.60" from="19922965#0" to="432864793#2"/>
    <trip id="155" depart="186.00" from="548557132#0" to="19922980#2"/>
    <trip id="158" depart="189.60" from="19922965#0" to="19923064#1"/>
    <trip id="160" depart="192.00" from="548557132#0" to="432864793#2"/>
    <trip id="162" depart="194.40" from="-432864793#2" to="4039300#1"/>
    <trip id="163" depart="195.60" from="19922965#0" to="432864793#2"/>
    <trip id="167" depart="200.40" from="548557132#0" to="432864793#2"/>
    <trip id="171" depart="205.20" from="-432864793#2" to="19922980#2"/>
    <trip id="172" depart="206.40" from="19922965#0" to="432864793#2"/>
    <trip id="173" depart="207.60" from="548557132#0" to="19922980#2"/>
    <trip id="176" depart="211.20" from="548557132#0" to="-29110230"/>
    <trip id="177" depart="212.40" from="548557132#0" to="19922980#2"/>
    <trip id="178" depart="213.60" from="548557132#0" to="19922980#2"/>
    <trip id="180" depart="216.00" from="52985347" to="19923007"/>
    <trip id="182" depart="218.40" from="19922965#0" to="19923064#1"/>
    <trip id="184" depart="220.80" from="-432864793#2" to="432864793#2"/>
    <trip id="185" depart="222.00" from="19923100#0" to="4039300#1"/>
    <trip id="187" depart="224.40" from="19922965#0" to="-29110230"/>
    <trip id="189" depart="226.80" from="19922965#0" to="4039300#1"/>
    <trip id="190" depart="228.00" from="52985347" to="19923007"/>
    <trip id="194" depart="232.80" from="548557132#0" to="19923064#1"/>
    <trip id="195" depart="234.00" from="548557132#0" to="19923064#1"/>
    <trip id="198" depart="237.60" from="19923100#0" to="19923064#1"/>
    <trip id="200" depart="240.00" from="19923100#0" to="19922980#2"/>
    <trip id="201" depart="241.20" from="19923100#0" to="432864793#2"/>
    <trip id="206" depart="247.20" from="29110230" to="19922980#2"/>
    <trip id="208" depart="249.60" from="10345998" to="19923016"/>
    <trip id="210" depart="252.00" from="19922965#0" to="19923064#1"/>
    <trip id="212" depart="254.40" from="19923100#0" to="19922980#2"/>
    <trip id="213" depart="255.60" from="29110230" to="-29110230"/>
    <trip id="217" depart="260.40" from="19923100#0" to="-29110230"/>
    <trip id="219" depart="262.80" from="19923100#0" to="4039300#1"/>
    <trip id="220" depart="264.00" from="29110230" to="432864793#2"/>
    <trip id="221" depart="265.20" from="29110230" to="432864793#2"/>
    <trip id="222" depart="266.40" from="548557132#0" to="19923064#1"/>
    <trip id="225" depart="270.00" from="548557132#0" to="4039300#1"/>
    <trip id="226" depart="271.20" from="19923100#0" to="19922980#2"/>
    <trip id="229" depart="274.80" from="29110230" to="19922980#2"/>
    <trip id="232" depart="278.40" from="19923100#0" to="-29110230"/>
    <trip id="234" depart="280.80" from="29110230" to="-29110230"/>
    <trip id="236" depart="283.20" from="19922965#0" to="19922980#2"/>
    <trip id="237" depart="284.40" from="19922965#0" to="432864793#2"/>
    <trip id="238" depart="285.60" from="29110230" to="19923064#1"/>
    <trip id="240" depart="288.00" from="19922965#0" to="-29110230"/>
    <trip id="241" depart="289.20" from="19922965#0" to="4039300#1"/>
    <trip id="243" depart="291.60" from="19922965#0" to="4039300#1"/>
    <trip id="244" depart="292.80" from="19923100#0" to="19923064#1"/>
    <trip id="246" depart="295.20" from="19923100#0" to="-29110230"/>
    <trip id="247" depart="296.40" from="19922965#0" to="19923064#1"/>
    <trip id="248" depart="297.60" from="19922965#0" to="19922980#2"/>
    <trip id="249" depart="298.80" from="19923100#0" to="-29110230"/>
    <trip id="250" depart="300.00" from="29110230" to="-29110230"/>
    <trip id="252" depart="302.40" from="-432864793#2" to="19923064#1"/>
    <trip id="256" depart="307.20" from="52985347" to="19923007"/>
    <trip id="261" depart="313.20" from="29110230" to="4039300#1"/>
    <trip id="262" depart="314.40" from="29110230" to="4039300#1"/>
    <trip id="263" depart="315.60" from="548557132#0" to="19922980#2"/>
    <trip id="264" depart="316.80" from="-432864793#2" to="19922980#2"/>
    <trip id="265" depart="318.00" from="-432864793#2" to="19923064#1"/>
    <trip id="266" depart="319.20" from="19923100#0" to="19922980#2"/>
    <trip id="267" depart="320.40" from="29110230" to="4039300#1"/>
    <trip id="271" depart="325.20" from="-432864793#2" to="-29110230"/>
    <trip id="272" depart="326.40" from="19922965#0" to="19923064#1"/>
    <trip id="275" depart="330.00" from="29110230" to="19923064#1"/>
    <trip id="276" depart="331.20" from="-432864793#2" to="4039300#1"/>
    <trip id="278" depart="333.60" from="-432864793#2" to="432864793#2"/>
    <trip id="279" depart="334.80" from="52985347" to="19923007"/>
    <trip id="283" depart="339.60" from="-432864793#2" to="432864793#2"/>
    <trip id="284" depart="340.80" from="29110230" to="4039300#1"/>
    <trip id="289" depart="346.80" from="19923100#0" to="4039300#1"/>
    <trip id="292" depart="350.40" from="548557132#0" to="19922980#2"/>
    <trip id="293" depart="351.60" from="19923100#0" to="19923064#1"/>
    <trip id="294" depart="352.80" from="19922965#0" to="-29110230"/>
    <trip id="297" depart="356.40" from="19922965#0" to="432864793#2"/>
    <trip id="298" depart="357.60" from="29110230" to="19922980#2"/>
    <trip id="299" depart="358.80" from="-432864793#2" to="432864793#2"/>
    <trip id="300" depart="360.00" from="-432864793#2" to="4039300#1"/>
    <trip id="301" depart="361.20" from="19923100#0" to="4039300#1"/>
    <trip id="302" depart="362.40" from="29110230" to="19923064#1"/>
    <trip id="303" depart="363.60" from="19923100#0" to="4039300#1"/>
    <trip id="304" depart="364.80" from="-432864793#2" to="19922980#2"/>
    <trip id="308" depart="369.60" from="52985347" to="19923007"/>
    <trip id="309" depart="370.80" from="29110230" to="19922980#2"/>
    <trip id="312" depart="374.40" from="19923100#0" to="4039300#1"/>
    <trip id="314" depart="376.80" from="19923100#0" to="4039300#1"/>
    <trip id="319" depart="382.80" from="19923100#0" to="19922980#2"/>
    <trip id="321" depart="385.20" from="29110230" to="-29110230"/>
    <trip id="323" depart="387.60" from="548557132#0" to="19923064#1"/>
    <trip id="327" depart="392.40" from="52985347" to="19923007"/>
    <trip id="328" depart="393.60" from="-432864793#2" to="19923064#1"/>
    <trip id="329" depart="394.80" from="-432864793#2" to="19922980#2"/>
    <trip id="331" depart="397.20" from="548557132#0" to="-29110230"/>
    <trip id="335" depart="402.00" from="19923100#0" to="432864793#2"/>
    <trip id="337" depart="404.40" from="29110230" to="19923064#1"/>
    <trip id="340" depart="408.00" from="29110230" to="19922980#2"/>
    <trip id="346" depart="415.20" from="29110230" to="432864793#2"/>
    <trip id="348" depart="417.60" from="29110230" to="432864793#2"/>
    <trip id="350" depart="420.00" from="29110230" to="432864793#2"/>
    <trip id="354" depart="424.80" from="19922965#0" to="-29110230"/>
    <trip id="355" depart="426.00" from="29110230" to="19923064#1"/>
    <trip id="357" depart="428.40" from="19923100#0" to="-29110230"/>
    <trip id="359" depart="430.80" from="19922965#0" to="19922980#2"/>
    <trip id="360" depart="432.00" from="-432864793#2" to="432864793#2"/>
    <trip id="362" depart="434.40" from="548557132#0" to="432864793#2"/>
    <trip id="363" depart="435.60" from="29110230" to="19922980#2"/>
    <trip id="364" depart="436.80" from="-432864793#2" to="4039300#1"/>
    <trip id="365" depart="438.00" from="19923100#0" to="19923064#1"/>
    <trip id="366" depart="439.20" from="548557132#0" to="19922980#2"/>
    <trip id="367" depart="440.40" from="29110230" to="19923064#1"/>
    <trip id="368" depart="441.60" from="19923100#0" to="-29110230"/>
    <trip id="370" depart="444.00" from="29110230" to="432864793#2"/>
    <trip id="371" depart="445.20" from="19922965#0" to="19923064#1"/>
    <trip id="372" depart="446.40" from="19922965#0" to="432864793#2"/>
    <trip id="375" depart="450.00" from="19922965#0" to="432864793#2"/>
    <trip id="377" depart="452.40" from="548557132#0" to="19923064#1"/>
    <trip id="382" depart="458.40" from="19923100#0" to="432864793#2"/>
    <trip id="383" depart="459.60" from="19923100#0" to="19923064#1"/>
    <trip id="384" depart="460.80" from="-432864793#2" to="432864793#2"/>
    <trip id="385" depart="462.00" from="29110230" to="19922980#2"/>
    <trip id="386" depart="463.20" from="10345998" to="19923016"/>
    <trip id="387" depart="464.40" from="19923100#0" to="-29110230"/>
    <trip id="388" depart="465.60" from="548557132#0" to="432864793#2"/>
    <trip id="389" depart="466.80" from="19923100#0" to="-29110230"/>
    <trip id="393" depart="471.60" from="548557132#0" to="19922980#2"/>
    <trip id="396" depart="475.20" from="548557132#0" to="432864793#2"/>
    <trip id="398" depart="477.60" from="19922965#0" to="432864793#2"/>
    <trip id="399" depart="478.80" from="19923100#0" to="4039300#1"/>
    <trip id="401" depart="481.20" from="29110230" to="432864793#2"/>
    <trip id="402" depart="482.40" from="19923100#0" to="19922980#2"/>
    <trip id="407" depart="488.40" from="29110230" to="19922980#2"/>
    <trip id="410" depart="492.00" from="52985347" to="19923007"/>
    <trip id="411" depart="493.20" from="29110230" to="4039300#1"/>
    <trip id="414" depart="496.80" from="29110230" to="432864793#2"/>
    <trip id="417" depart="500.40" from="52985347" to="19923007"/>
    <trip id="418" depart="501.60" from="29110230" to="19922980#2"/>
    <trip id="419" depart="502.80" from="19923100#0" to="432864793#2"/>
    <trip id="420" depart="504.00" from="19922965#0" to="19923064#1"/>
    <trip id="421" depart="505.20" from="29110230" to="4039300#1"/>
    <trip id="425" depart="510.00" from="548557132#0" to="-29110230"/>
    <trip id="426" depart="511.20" from="-432864793#2" to="19923064#1"/>
    <trip id="427" depart="512.40" from="548557132#0" to="432864793#2"/>
    <trip id="429" depart="514.80" from="-432864793#2" to="19923064#1"/>
    <trip id="431" depart="517.20" from="29110230" to="432864793#2"/>
    <trip id="432" depart="518.40" from="-432864793#2" to="4039300#1"/>
    <trip id="434" depart="520.80" from="10345998" to="19923016"/>
    <trip id="435" depart="522.00" from="19923100#0" to="4039300#1"/>
    <trip id="437" depart="524.40" from="548557132#0" to="19923064#1"/>
    <trip id="439" depart="526.80" from="10345998" to="19923016"/>
    <trip id="441" depart="529.20" from="-432864793#2" to="4039300#1"/>
    <trip id="442" depart="530.40" from="548557132#0" to="19923064#1"/>
    <trip id="443" depart="531.60" from="10345998" to="19923016"/>
    <trip id="444" depart="532.80" from="19922965#0" to="19923064#1"/>
    <trip id="448" depart="537.60" from="19923100#0" to="19922980#2"/>
    <trip id="449" depart="538.80" from="29110230" to="19923064#1"/>
    <trip id="451" depart="541.20" from="548557132#0" to="19923064#1"/>
    <trip id="452" depart="542.40" from="10345998" to="19923016"/>
    <trip id="453" depart="543.60" from="29110230" to="4039300#1"/>
    <trip id="454" depart="544.80" from="-432864793#2" to="19923064#1"/>
    <trip id="455" depart="546.00" from="19923100#0" to="432864793#2"/>
    <trip id="456" depart="547.20" from="19922965#0" to="4039300#1"/>
    <trip id="458" depart="549.60" from="29110230" to="19923064#1"/>
    <trip id="459" depart="550.80" from="29110230" to="4039300#1"/>
    <trip id="460" depart="552.00" from="29110230" to="4039300#1"/>
    <trip id="461" depart="553.20" from="29110230" to="432864793#2"/>
    <trip id="463" depart="555.60" from="19923100#0" to="19923064#1"/>
    <trip id="465" depart="558.00" from="19922965#0" to="4039300#1"/>
    <trip id="467" depart="560.40" from="19923100#0" to="432864793#2"/>
    <trip id="468" depart="561.60" from="19923100#0" to="432864793#2"/>
    <trip id="472" depart="566.40" from="19922965#0" to="-29110230"/>
    <trip id="473" depart="567.60" from="548557132#0" to="-29110230"/>
    <trip id="474" depart="568.80" from="548557132#0" to="432864793#2"/>
    <trip id="476" depart="571.20" from="548557132#0" to="4039300#1"/>
    <trip id="477" depart="572.40" from="19922965#0" to="4039300#1"/>
    <trip id="479" depart="574.80" from="19923100#0" to="19923064#1"/>
    <trip id="480" depart="576.00" from="29110230" to="19923064#1"/>
    <trip id="482" depart="578.40" from="-432864793#2" to="19922980#2"/>
    <trip id="483" depart="579.60" from="-432864793#2" to="432864793#2"/>
    <trip id="484" depart="580.80" from="19923100#0" to="432864793#2"/>
    <trip id="488" depart="585.60" from="-432864793#2" to="432864793#2"/>
    <trip id="490" depart="588.00" from="-432864793#2" to="432864793#2"/>
    <trip id="492" depart="590.40" from="29110230" to="4039300#1"/>
    <trip id="495" depart="594.00" from="19922965#0" to="-29110230"/>
    <trip id="497" depart="596.40" from="548557132#0" to="-29110230"/>
    <trip id="499" depart="598.80" from="548557132#0" to="4039300#1"/>
    <trip id="500" depart="600.00" from="-432864793#2" to="19923064#1"/>
    <trip id="501" depart="601.20" from="19923100#0" to="432864793#2"/>
    <trip id="505" depart="606.00" from="29110230" to="19923064#1"/>
    <trip id="506" depart="607.20" from="29110230" to="-29110230"/>
    <trip id="509" depart="610.80" from="-432864793#2" to="4039300#1"/>
    <trip id="513" depart="615.60" from="-432864793#2" to="432864793#2"/>
    <trip id="516" depart="619.20" from="29110230" to="-29110230"/>
    <trip id="517" depart="620.40" from="-432864793#2" to="4039300#1"/>
    <trip id="524" depart="628.80" from="548557132#0" to="-29110230"/>
    <trip id="527" depart="632.40" from="548557132#0" to="-29110230"/>
    <trip id="530" depart="636.00" from="548557132#0" to="-29110230"/>
    <trip id="531" depart="637.20" from="-432864793#2" to="19923064#1"/>
    <trip id="532" depart="638.40" from="-432864793#2" to="19922980#2"/>
    <trip id="534" depart="640.80" from="19922965#0" to="432864793#2"/>
    <trip id="536" depart="643.20" from="29110230" to="-29110230"/>
    <trip id="537" depart="644.40" from="29110230" to="4039300#1"/>
    <trip id="538" depart="645.60" from="29110230" to="4039300#1"/>
    <trip id="540" depart="648.00" from="19923100#0" to="19922980#2"/>
    <trip id="542" depart="650.40" from="19922965#0" to="-29110230"/>
    <trip id="543" depart="651.60" from="19922965#0" to="19923064#1"/>
    <trip id="544" depart="652.80" from="19922965#0" to="19922980#2"/>
    <trip id="545" depart="654.00" from="548557132#0" to="-29110230"/>
    <trip id="547" depart="656.40" from="-432864793#2" to="4039300#1"/>
    <trip id="550" depart="660.00" from="19922965#0" to="-29110230"/>
    <trip id="551" depart="661.20" from="19922965#0" to="19923064#1"/>
    <trip id="555" depart="666.00" from="29110230" to="19922980#2"/>
    <trip id="556" depart="667.20" from="29110230" to="19922980#2"/>
    <trip id="557" depart="668.40" from="-432864793#2" to="4039300#1"/>
    <trip id="558" depart="669.60" from="19922965#0" to="4039300#1"/>
    <trip id="559" depart="670.80" from="29110230" to="4039300#1"/>
    <trip id="562" depart="674.40" from="29110230" to="-29110230"/>
    <trip id="563" depart="675.60" from="548557132#0" to="4039300#1"/>
    <trip id="566" depart="679.20" from="19922965#0" to="-29110230"/>
    <trip id="568" depart="681.60" from="19922965#0" to="-29110230"/>
    <trip id="569" depart="682.80" from="29110230" to="-29110230"/>
    <trip id="572" depart="686.40" from="19922965#0" to="4039300#1"/>
    <trip id="574" depart="688.80" from="-432864793#2" to="-29110230"/>
    <trip id="576" depart="691.20" from="29110230" to="19922980#2"/>
    <trip id="578" depart="693.60" from="19923100#0" to="19922980#2"/>
    <trip id="580" depart="696.00" from="19923100#0" to="19922980#2"/>
    <trip id="582" depart="698.40" from="29110230" to="-29110230"/>
    <trip id="583" depart="699.60" from="19922965#0" to="19923064#1"/>
    <trip id="587" depart="704.40" from="-432864793#2" to="4039300#1"/>
    <trip id="591" depart="709.20" from="-432864793#2" to="432864793#2"/>
    <trip id="592" depart="710.40" from="-432864793#2" to="-29110230"/>
    <trip id="593" depart="711.60" from="548557132#0" to="432864793#2"/>
    <trip id="594" depart="712.80" from="29110230" to="19923064#1"/>
    <trip id="596" depart="715.20" from="-432864793#2" to="-29110230"/>
    <trip id="597" depart="716.40" from="19922965#0" to="4039300#1"/>
    <trip id="598" depart="717.60" from="29110230" to="4039300#1"/>
    <trip id="599" depart="718.80" from="548557132#0" to="-29110230"/>
    <trip id="604" depart="724.80" from="10345998" to="19923016"/>
    <trip id="610" depart="732.00" from="29110230" to="4039300#1"/>
    <trip id="611" depart="733.20" from="29110230" to="19922980#2"/>
    <trip id="614" depart="736.80" from="19923100#0" to="432864793#2"/>
    <trip id="615" depart="738.00" from="19923100#0" to="19923064#1"/>
    <trip id="616" depart="739.20" from="29110230" to="432864793#2"/>
    <trip id="617" depart="740.40" from="29110230" to="19922980#2"/>
    <trip id="619" depart="742.80" from="19922965#0" to="19922980#2"/>
    <trip id="622" depart="746.40" from="-432864793#2" to="4039300#1"/>
    <trip id="623" depart="747.60" from="-432864793#2" to="432864793#2"/>
    <trip id="626" depart="751.20" from="19923100#0" to="4039300#1"/>
    <trip id="631" depart="757.20" from="-432864793#2" to="432864793#2"/>
    <trip id="632" depart="758.40" from="19922965#0" to="4039300#1"/>
    <trip id="633" depart="759.60" from="19923100#0" to="19922980#2"/>
    <trip id="634" depart="760.80" from="10345998" to="19923016"/>
    <trip id="638" depart="765.60" from="19922965#0" to="19923064#1"/>
    <trip id="640" depart="768.00" from="-432864793#2" to="-29110230"/>
    <trip id="641" depart="769.20" from="29110230" to="19922980#2"/>
    <trip id="643" depart="771.60" from="548557132#0" to="432864793#2"/>
    <trip id="644" depart="772.80" from="19922965#0" to="19923064#1"/>
    <trip id="646" depart="775.20" from="548557132#0" to="19923064#1"/>
    <trip id="647" depart="776.40" from="19922965#0" to="19923064#1"/>
    <trip id="649" depart="778.80" from="19922965#0" to="4039300#1"/>
    <trip id="658" depart="789.60" from="-432864793#2" to="4039300#1"/>
    <trip id="659" depart="790.80" from="-432864793#2" to="4039300#1"/>
    <trip id="663" depart="795.60" from="19922965#0" to="19922980#2"/>
    <trip id="667" depart="800.40" from="29110230" to="19922980#2"/>
    <trip id="668" depart="801.60" from="19923100#0" to="19922980#2"/>
    <trip id="672" depart="806.40" from="52985347" to="19923007"/>
    <trip id="673" depart="807.60" from="548557132#0" to="432864793#2"/>
    <trip id="674" depart="808.80" from="19923100#0" to="19922980#2"/>
    <trip id="676" depart="811.20" from="548557132#0" to="4039300#1"/>
    <trip id="680" depart="816.00" from="-432864793#2" to="4039300#1"/>
    <trip id="683" depart="819.60" from="548557132#0" to="19922980#2"/>
    <trip id="684" depart="820.80" from="19923100#0" to="432864793#2"/>
    <trip id="685" depart="822.00" from="10345998" to="19923016"/>
    <trip id="686" depart="823.20" from="19922965#0" to="-29110230"/>
    <trip id="689" depart="826.80" from="19922965#0" to="-29110230"/>
    <trip id="690" depart="828.00" from="548557132#0" to="4039300#1"/>
    <trip id="691" depart="829.20" from="29110230" to="4039300#1"/>
    <trip id="694" depart="832.80" from="-432864793#2" to="19923064#1"/>
    <trip id="695" depart="834.00" from="19923100#0" to="-29110230"/>
    <trip id="696" depart="835.20" from="-432864793#2" to="19922980#2"/>
    <trip id="700" depart="840.00" from="19922965#0" to="-29110230"/>
    <trip id="701" depart="841.20" from="19922965#0" to="4039300#1"/>
    <trip id="702" depart="842.40" from="19923100#0" to="-29110230"/>
    <trip id="703" depart="843.60" from="548557132#0" to="19923064#1"/>
    <trip id="706" depart="847.20" from="19923100#0" to="19923064#1"/>
    <trip id="708" depart="849.60" from="29110230" to="-29110230"/>
    <trip id="709" depart="850.80" from="548557132#0" to="-29110230"/>
    <trip id="713" depart="855.60" from="29110230" to="432864793#2"/>
    <trip id="715" depart="858.00" from="52985347" to="19923007"/>
    <trip id="718" depart="861.60" from="19922965#0" to="-29110230"/>
    <trip id="719" depart="862.80" from="19923100#0" to="4039300#1"/>
    <trip id="721" depart="865.20" from="19923100#0" to="19923064#1"/>
    <trip id="722" depart="866.40" from="29110230" to="4039300#1"/>
    <trip id="723" depart="867.60" from="-432864793#2" to="4039300#1"/>
    <trip id="725" depart="870.00" from="-432864793#2" to="19922980#2"/>
    <trip id="726" depart="871.20" from="-432864793#2" to="432864793#2"/>
    <trip id="727" depart="872.40" from="19923100#0" to="432864793#2"/>
    <trip id="728" depart="873.60" from="19923100#0" to="19922980#2"/>
    <trip id="730" depart="876.00" from="19922965#0" to="4039300#1"/>
    <trip id="733" depart="879.60" from="548557132#0" to="4039300#1"/>
    <trip id="736" depart="883.20" from="19923100#0" to="432864793#2"/>
    <trip id="737" depart="884.40" from="19923100#0" to="4039300#1"/>
    <trip id="739" depart="886.80" from="29110230" to="4039300#1"/>
    <trip id="741" depart="889.20" from="-432864793#2" to="19923064#1"/>
    <trip id="742" depart="890.40" from="19922965#0" to="19923064#1"/>
    <trip id="743" depart="891.60" from="19922965#0" to="19923064#1"/>
    <trip id="744" depart="892.80" from="19922965#0" to="-29110230"/>
    <trip id="746" depart="895.20" from="548557132#0" to="19922980#2"/>
    <trip id="747" depart="896.40" from="548557132#0" to="432864793#2"/>
    <trip id="748" depart="897.60" from="-432864793#2" to="19923064#1"/>
    <trip id="749" depart="898.80" from="19922965#0" to="4039300#1"/>
    <trip id="750" depart="900.00" from="29110230" to="432864793#2"/>
    <trip id="751" depart="901.20" from="-432864793#2" to="19923064#1"/>
    <trip id="753" depart="903.60" from="-432864793#2" to="4039300#1"/>
    <trip id="755" depart="906.00" from="19923100#0" to="19923064#1"/>
    <trip id="756" depart="907.20" from="29110230" to="432864793#2"/>
    <trip id="757" depart="908.40" from="19922965#0" to="4039300#1"/>
    <trip id="759" depart="910.80" from="19922965#0" to="19923064#1"/>
    <trip id="764" depart="916.80" from="19923100#0" to="432864793#2"/>
    <trip id="766" depart="919.20" from="19923100#0" to="-29110230"/>
    <trip id="769" depart="922.80" from="-432864793#2" to="19923064#1"/>
    <trip id="770" depart="924.00" from="52985347" to="19923007"/>