<?xml version="1.0" encoding="UTF-8"?>

<!-- generated on 2024-09-03 01:37:46 by Eclipse SUMO netconvert Version 1.20.0
<configuration xmlns:xsi="http://www.w3.org/2001/XMLSchema-instance" xsi:noNamespaceSchemaLocation="http://sumo.dlr.de/xsd/netconvertConfiguration.xsd">

    <input>
        <osm-files value="train_files/roundabout/middle/osm_files/map(24).osm"/>
    </input>

    <output>
        <output-file value="train_files/roundabout/middle/outputs/map(24)_dict/map(24)/map(24).net.xml"/>
    </output>

    <projection>
        <proj.utm value="true"/>
    </projection>

    <building_defaults>
        <default.junctions.keep-clear value="false"/>
    </building_defaults>

</configuration>
-->

<net version="1.20" junctionCornerDetail="5" limitTurnSpeed="5.50" xmlns:xsi="http://www.w3.org/2001/XMLSchema-instance" xsi:noNamespaceSchemaLocation="http://sumo.dlr.de/xsd/net_file.xsd">

    <location netOffset="-465615.54,-5391953.58" convBoundary="0.00,0.00,437.46,550.13" origBoundary="2.532853,48.679698,2.538805,48.684643" projParameter="+proj=utm +zone=31 +ellps=WGS84 +datum=WGS84 +units=m +no_defs"/>

    <type id="highway.cycleway" priority="1" numLanes="1" speed="5.56" allow="bicycle" oneway="0" width="2.00"/>
    <type id="highway.footway" priority="1" numLanes="1" speed="2.78" allow="pedestrian" oneway="1" width="2.00"/>
    <type id="highway.secondary" priority="11" numLanes="1" speed="27.78" disallow="tram rail_urban rail rail_electric rail_fast ship container cable_car subway aircraft wheelchair scooter drone" oneway="0"/>
    <type id="highway.service" priority="1" numLanes="1" speed="5.56" allow="pedestrian delivery bicycle" oneway="0"/>
    <type id="highway.steps" priority="1" numLanes="1" speed="1.39" allow="pedestrian" oneway="1" width="2.00"/>
    <type id="highway.unclassified" priority="4" numLanes="1" speed="13.89" disallow="tram rail_urban rail rail_electric rail_fast ship container cable_car subway aircraft wheelchair scooter drone" oneway="0"/>

    <edge id=":1345622003_0" function="internal">
        <lane id=":1345622003_0_0" index="0" disallow="tram rail_urban rail rail_electric rail_fast ship container cable_car subway aircraft wheelchair scooter drone" speed="9.45" length="5.89" shape="394.91,106.51 394.52,108.12 394.72,109.28 395.26,110.45 395.87,112.11"/>
    </edge>
    <edge id=":1345622003_1" function="internal">
        <lane id=":1345622003_1_0" index="0" disallow="tram rail_urban rail rail_electric rail_fast ship container cable_car subway aircraft wheelchair scooter drone" speed="9.49" length="5.90" shape="394.91,106.51 394.27,108.13 393.69,109.22 392.86,110.09 391.44,111.06"/>
    </edge>
    <edge id=":1345635297_0" function="internal">
        <lane id=":1345635297_0_0" index="0" disallow="tram rail_urban rail rail_electric rail_fast ship container cable_car subway aircraft wheelchair scooter drone" speed="13.89" length="0.99" shape="217.47,76.90 217.32,76.65 217.24,76.46 217.21,76.26 217.22,75.97"/>
    </edge>
    <edge id=":1345635307_0" function="internal">
        <lane id=":1345635307_0_0" index="0" disallow="tram rail_urban rail rail_electric rail_fast ship container cable_car subway aircraft wheelchair scooter drone" speed="13.89" length="10.80" shape="351.82,67.85 354.76,68.46 357.01,68.17 359.30,67.48 362.38,66.88"/>
    </edge>
    <edge id=":1345635307_1" function="internal">
        <lane id=":1345635307_1_0" index="0" disallow="tram rail_urban rail rail_electric rail_fast ship container cable_car subway aircraft wheelchair scooter drone" speed="13.89" length="10.63" shape="351.82,67.85 362.10,70.55"/>
    </edge>
    <edge id=":1345635348_0" function="internal">
        <lane id=":1345635348_0_0" index="0" disallow="tram rail_urban rail rail_electric rail_fast ship container cable_car subway aircraft wheelchair scooter drone" speed="13.89" length="5.61" shape="363.69,66.74 365.34,66.56 366.47,66.38 367.57,66.09 369.15,65.57"/>
    </edge>
    <edge id=":317578154_0" function="internal">
        <lane id=":317578154_0_0" index="0" disallow="tram rail_urban rail rail_electric rail_fast ship container cable_car subway aircraft wheelchair scooter drone" speed="27.78" length="7.36" shape="396.88,78.27 396.54,80.44 396.29,81.93 396.23,83.42 396.46,85.58"/>
    </edge>
    <edge id=":317578154_1" function="internal">
        <lane id=":317578154_1_0" index="0" disallow="tram rail_urban rail rail_electric rail_fast ship container cable_car subway aircraft wheelchair scooter drone" speed="13.59" length="7.35" shape="392.92,79.30 394.30,81.00 395.29,82.19 395.98,83.50 396.46,85.58"/>
    </edge>
    <edge id=":317578164_0" function="internal">
        <lane id=":317578164_0_0" index="0" disallow="tram rail_urban rail rail_electric rail_fast ship container cable_car subway aircraft wheelchair scooter drone" speed="6.35" length="9.94" shape="375.44,74.13 378.58,74.62 380.87,74.16 382.30,72.76 382.88,70.40"/>
    </edge>
    <edge id=":317578164_1" function="internal">
        <lane id=":317578164_1_0" index="0" disallow="tram rail_urban rail rail_electric rail_fast ship container cable_car subway aircraft wheelchair scooter drone" speed="20.84" length="12.54" shape="375.44,74.13 378.68,75.06 381.48,75.88 384.30,76.55 387.62,77.04"/>
    </edge>
    <edge id=":317578164_2" function="internal">
        <lane id=":317578164_2_0" index="0" disallow="tram rail_urban rail rail_electric rail_fast ship container cable_car subway aircraft wheelchair scooter drone" speed="19.52" length="12.67" shape="376.82,81.31 378.74,78.46 380.65,76.08 382.15,73.59 382.88,70.40"/>
    </edge>
    <edge id=":317578164_3" function="internal">
        <lane id=":317578164_3_0" index="0" disallow="tram rail_urban rail rail_electric rail_fast ship container cable_car subway aircraft wheelchair scooter drone" speed="8.87" length="12.34" shape="376.82,81.31 378.55,79.13 380.92,77.68 383.95,76.99 387.62,77.04"/>
    </edge>
    <edge id=":317578165_0" function="internal">
        <lane id=":317578165_0_0" index="0" disallow="tram rail_urban rail rail_electric rail_fast ship container cable_car subway aircraft wheelchair scooter drone" speed="27.78" length="0.20" shape="387.82,77.06 387.62,77.06"/>
    </edge>
    <edge id=":317578167_0" function="internal">
        <lane id=":317578167_0_0" index="0" disallow="tram rail_urban rail rail_electric rail_fast ship container cable_car subway aircraft wheelchair scooter drone" speed="8.59" length="7.90" shape="379.71,59.74 381.66,58.06 383.07,56.46 383.92,54.95 384.23,53.52"/>
    </edge>
    <edge id=":317578167_1" function="internal">
        <lane id=":317578167_1_0" index="0" disallow="tram rail_urban rail rail_electric rail_fast ship container cable_car subway aircraft wheelchair scooter drone" speed="27.78" length="8.31" shape="383.55,61.80 384.23,53.52"/>
    </edge>
    <edge id=":317578220_0" function="internal">
        <lane id=":317578220_0_0" index="0" allow="bicycle" speed="8.10" length="5.17" width="2.00" shape="396.85,102.53 396.70,104.00 396.90,105.03 397.43,105.99 398.25,107.29"/>
    </edge>
    <edge id=":317578220_1" function="internal">
        <lane id=":317578220_1_0" index="0" disallow="tram rail_urban rail rail_electric rail_fast ship container cable_car subway aircraft wheelchair scooter drone" speed="27.78" length="4.12" shape="396.26,102.42 396.00,103.61 395.76,104.41 395.44,105.19 394.98,106.32"/>
    </edge>
    <edge id=":317578223_0" function="internal">
        <lane id=":317578223_0_0" index="0" disallow="tram rail_urban rail rail_electric rail_fast ship container cable_car subway aircraft wheelchair scooter drone" speed="7.32" length="10.87" shape="386.39,118.65 384.60,116.46 382.43,115.32 379.90,115.22 376.99,116.16"/>
    </edge>
    <edge id=":317578223_1" function="internal">
        <lane id=":317578223_1_0" index="0" disallow="tram rail_urban rail rail_electric rail_fast ship container cable_car subway aircraft wheelchair scooter drone" speed="18.06" length="12.99" shape="386.39,118.65 384.38,115.88 382.25,113.68 380.06,111.52 377.90,108.85"/>
    </edge>
    <edge id=":317578223_2" function="internal">
        <lane id=":317578223_2_0" index="0" disallow="tram rail_urban rail rail_electric rail_fast ship container cable_car subway aircraft wheelchair scooter drone" speed="20.84" length="12.85" shape="389.23,112.44 386.17,113.84 383.22,114.49 380.21,115.05 376.99,116.16"/>
    </edge>
    <edge id=":317578223_3" function="internal">
        <lane id=":317578223_3_0" index="0" disallow="tram rail_urban rail rail_electric rail_fast ship container cable_car subway aircraft wheelchair scooter drone" speed="7.91" length="13.40" shape="389.23,112.44 386.20,113.68 383.29,113.49 380.53,111.88 377.90,108.85"/>
    </edge>
    <edge id=":317578421_0" function="internal">
        <lane id=":317578421_0_0" index="0" disallow="tram rail_urban rail rail_electric rail_fast ship container cable_car subway aircraft wheelchair scooter drone" speed="8.33" length="4.93" shape="392.41,128.79 389.86,124.57"/>
    </edge>
    <edge id=":5554500862_0" function="internal">
        <lane id=":5554500862_0_0" index="0" disallow="tram rail_urban rail rail_electric rail_fast ship container cable_car subway aircraft wheelchair scooter drone" speed="8.33" length="0.29" shape="388.74,122.60 388.59,122.35"/>
    </edge>
    <edge id=":5554500864_0" function="internal">
        <lane id=":5554500864_0_0" index="0" disallow="tram rail_urban rail rail_electric rail_fast ship container cable_car subway aircraft wheelchair scooter drone" speed="8.33" length="7.01" shape="399.42,140.37 395.96,134.28"/>
    </edge>
    <edge id=":5554500864_1" function="internal">
        <lane id=":5554500864_1_0" index="0" allow="bicycle" speed="6.95" length="6.95" width="2.00" shape="396.24,141.30 396.43,139.23 396.58,137.75 396.37,136.37 395.45,134.61"/>
    </edge>
    <edge id=":5554512942_0" function="internal">
        <lane id=":5554512942_0_0" index="0" allow="pedestrian bicycle" speed="2.89" length="2.92" width="2.00" shape="222.26,51.88 221.37,51.75 220.93,51.41 220.94,50.85 221.40,50.07"/>
    </edge>
    <edge id=":5554512945_0" function="internal">
        <lane id=":5554512945_0_0" index="0" allow="pedestrian bicycle" speed="5.56" length="3.67" width="2.00" shape="347.24,63.54 346.70,62.77 346.05,62.16 345.28,61.71 344.38,61.42"/>
    </edge>
    <edge id=":5554512945_1" function="internal">
        <lane id=":5554512945_1_0" index="0" allow="pedestrian bicycle" speed="2.89" length="2.92" width="2.00" shape="347.24,63.54 347.31,62.65 347.63,62.18 348.18,62.16 348.99,62.57"/>
    </edge>
    <edge id=":5554512945_2" function="internal">
        <lane id=":5554512945_2_0" index="0" allow="pedestrian bicycle" speed="5.56" length="5.37" width="2.00" shape="344.80,59.47 346.11,59.89 347.25,60.55 348.20,61.44 348.99,62.57"/>
    </edge>
    <edge id=":5554512945_3" function="internal">
        <lane id=":5554512945_3_0" index="0" allow="pedestrian bicycle" speed="2.89" length="2.92" width="2.00" shape="344.80,59.47 345.43,60.12 345.57,60.66 345.22,61.09 344.38,61.42"/>
    </edge>
    <edge id=":5554512946_0" function="internal">
        <lane id=":5554512946_0_0" index="0" allow="pedestrian delivery bicycle" speed="5.67" length="5.43" shape="351.00,62.57 350.85,64.71 350.91,66.29 351.17,67.31 351.63,67.78"/>
    </edge>
    <edge id=":5554512946_1" function="internal">
        <lane id=":5554512946_1_0" index="0" allow="pedestrian bicycle" speed="4.72" length="7.41" width="2.00" shape="351.00,62.57 350.52,65.11 349.75,66.14 348.69,65.68 347.33,63.72"/>
    </edge>
    <edge id=":5554512946_2" function="internal">
        <lane id=":5554512946_2_0" index="0" allow="pedestrian bicycle" speed="8.30" length="5.64" width="2.00" shape="349.08,62.75 351.63,67.78"/>
    </edge>
    <edge id=":5554512946_3" function="internal">
        <lane id=":5554512946_3_0" index="0" allow="pedestrian bicycle" speed="2.89" length="2.92" width="2.00" shape="349.08,62.75 349.01,63.65 348.69,64.11 348.13,64.13 347.33,63.72"/>
    </edge>
    <edge id=":5554512946_4" function="internal">
        <lane id=":5554512946_4_0" index="0" allow="pedestrian bicycle" speed="4.29" length="5.15" width="2.00" shape="345.07,66.21 346.77,66.39 347.71,66.04 347.90,65.15 347.33,63.72"/>
    </edge>
    <edge id=":5554512946_5" function="internal">
        <lane id=":5554512946_5_0" index="0" disallow="tram rail_urban rail rail_electric rail_fast ship container cable_car subway aircraft wheelchair scooter drone" speed="13.89" length="6.75" shape="345.07,66.21 347.04,66.60 348.39,66.85 349.73,67.17 351.63,67.78"/>
    </edge>
    <edge id=":6306873209_0" function="internal">
        <lane id=":6306873209_0_0" index="0" disallow="tram rail_urban rail rail_electric rail_fast ship container cable_car subway aircraft wheelchair scooter drone" speed="13.89" length="0.36" shape="373.14,117.98 373.04,118.03 372.97,118.05 372.90,118.07 372.80,118.10"/>
    </edge>
    <edge id=":7678171598_0" function="internal">
        <lane id=":7678171598_0_0" index="0" disallow="tram rail_urban rail rail_electric rail_fast ship container cable_car subway aircraft wheelchair scooter drone" speed="13.89" length="5.01" shape="363.34,70.87 368.18,72.16"/>
    </edge>
    <edge id=":9159576725_0" function="internal">
        <lane id=":9159576725_0_0" index="0" allow="pedestrian delivery bicycle" speed="5.05" length="5.04" shape="248.45,88.86 247.08,88.72 246.00,89.05 245.20,89.86 244.68,91.15"/>
    </edge>
    <edge id=":9159576725_1" function="internal">
        <lane id=":9159576725_1_0" index="0" disallow="tram rail_urban rail rail_electric rail_fast ship container cable_car subway aircraft wheelchair scooter drone" speed="13.89" length="6.25" shape="248.45,88.86 242.37,87.42"/>
    </edge>
    <edge id=":9160073093_0" function="internal">
        <lane id=":9160073093_0_0" index="0" allow="pedestrian delivery bicycle" speed="2.78" length="4.67" shape="134.70,203.91 133.32,203.47 132.72,202.81 132.89,201.93 133.82,200.83"/>
    </edge>
    <edge id=":9160073115_0" function="internal">
        <lane id=":9160073115_0_0" index="0" allow="pedestrian delivery bicycle" speed="5.56" length="9.52" shape="349.09,135.38 358.12,138.38"/>
    </edge>
    <edge id=":9160073115_1" function="internal">
        <lane id=":9160073115_1_0" index="0" allow="pedestrian delivery bicycle" speed="4.17" length="7.92" shape="349.09,135.38 351.65,136.36 353.36,137.52 354.25,138.85 354.30,140.36"/>
    </edge>
    <edge id=":9160073115_2" function="internal">
        <lane id=":9160073115_2_0" index="0" allow="pedestrian delivery bicycle" speed="4.17" length="7.87" shape="351.23,139.40 351.95,138.12 353.33,137.53 355.39,137.61 358.12,138.38"/>
    </edge>
    <edge id=":9160073115_3" function="internal">
        <lane id=":9160073115_3_0" index="0" allow="pedestrian delivery bicycle" speed="2.78" length="4.69" shape="351.23,139.40 352.36,138.49 353.24,138.35 353.89,138.97 354.30,140.36"/>
    </edge>
    <edge id=":9987901664_0" function="internal">
        <lane id=":9987901664_0_0" index="0" allow="pedestrian delivery bicycle" speed="5.56" length="3.09" shape="351.32,59.30 351.02,62.38"/>
    </edge>

    <edge id="-1090439543" from="5554512945" to="5554512946" priority="1" type="highway.cycleway">
        <lane id="-1090439543_0" index="0" allow="pedestrian bicycle" speed="5.56" length="0.20" width="2.00" shape="348.99,62.57 349.08,62.75"/>
    </edge>
    <edge id="-580151444" from="5554512942" to="5554512945" priority="1" type="highway.cycleway" shape="221.83,50.98 227.59,48.24 240.06,43.34 250.15,41.87 268.07,44.88 270.40,45.28 278.89,46.24 310.14,53.00 346.95,60.96">
        <lane id="-580151444_0" index="0" allow="pedestrian bicycle" speed="5.56" length="126.93" width="2.00" shape="221.40,50.07 227.19,47.32 239.80,42.37 250.16,40.86 268.23,43.90 270.54,44.29 279.05,45.25 310.35,52.02 344.80,59.47"/>
    </edge>
    <edge id="-991436608" from="9160073093" to="9160073115" priority="1" type="highway.service" shape="134.26,202.37 136.78,201.65 180.40,189.34 203.74,182.75 205.58,182.24 207.58,181.67 209.43,181.15 252.32,169.04 269.15,164.29 270.98,163.78 273.00,163.21 274.91,162.67 300.44,155.52 352.52,140.93 353.50,136.71">
        <lane id="-991436608_0" index="0" allow="pedestrian delivery bicycle" speed="2.78" length="226.05" shape="133.82,200.83 136.35,200.11 179.97,187.80 203.30,181.21 205.14,180.70 207.15,180.13 209.00,179.61 251.88,167.50 268.71,162.75 270.55,162.23 272.57,161.67 274.48,161.13 300.01,153.97 351.18,139.64 351.23,139.40"/>
    </edge>
    <edge id="1090439539" from="7678171598" to="317578164" priority="4" type="highway.unclassified" spreadType="center" shape="366.01,71.57 376.22,74.34 382.55,76.50">
        <lane id="1090439539_0" index="0" disallow="tram rail_urban rail rail_electric rail_fast ship container cable_car subway aircraft wheelchair scooter drone" speed="13.89" length="7.53" shape="368.18,72.16 375.44,74.13"/>
    </edge>
    <edge id="1090439540#0" from="7678171598" to="1345635348" priority="1" type="highway.footway" spreadType="center">
        <lane id="1090439540#0_0" index="0" allow="pedestrian" speed="2.78" length="0.20" width="2.00" shape="366.25,69.14 366.27,68.94"/>
    </edge>
    <edge id="1090439540#1" from="1345635348" to="9987901658" priority="1" type="highway.footway" spreadType="center">
        <lane id="1090439540#1_0" index="0" allow="pedestrian" speed="2.78" length="0.20" width="2.00" shape="366.17,64.28 366.14,64.08"/>
    </edge>
    <edge id="1090439541" from="9987901658" to="9987901663" priority="1" type="highway.footway" spreadType="center" shape="365.91,62.71 372.26,61.53 377.68,56.98 379.81,52.33 380.80,47.12">
        <lane id="1090439541_0" index="0" allow="pedestrian" speed="2.78" length="21.47" width="2.00" shape="368.35,62.25 372.26,61.53 377.68,56.98 379.81,52.33 380.80,47.12"/>
    </edge>
    <edge id="1090439542#0" from="5554512945" to="9987901664" priority="1" type="highway.footway" spreadType="center">
        <lane id="1090439542#0_0" index="0" allow="pedestrian" speed="2.78" length="0.20" width="2.00" shape="349.85,61.75 350.04,61.80"/>
    </edge>
    <edge id="1090439542#1" from="9987901664" to="9987901658" priority="1" type="highway.footway" spreadType="center" shape="351.05,62.08 356.06,63.44 365.91,62.71">
        <lane id="1090439542#1_0" index="0" allow="pedestrian" speed="2.78" length="9.37" width="2.00" shape="354.22,62.94 356.06,63.44 363.50,62.89"/>
    </edge>
    <edge id="1090439543" from="5554512946" to="5554512945" priority="1" type="highway.cycleway">
        <lane id="1090439543_0" index="0" allow="pedestrian bicycle" speed="5.56" length="0.20" width="2.00" shape="347.33,63.72 347.24,63.54"/>
    </edge>
    <edge id="119895933#0" from="6306873209" to="9159576725" priority="4" type="highway.unclassified" spreadType="center" shape="372.97,118.06 369.43,118.85 366.41,118.82 354.25,116.29 279.99,96.89 245.44,88.10">
        <lane id="119895933#0_0" index="0" disallow="tram rail_urban rail rail_electric rail_fast ship container cable_car subway aircraft wheelchair scooter drone" speed="13.89" length="128.19" shape="372.80,118.10 369.43,118.85 366.41,118.82 354.25,116.29 279.99,96.89 248.45,88.86"/>
    </edge>
    <edge id="119895933#1" from="9159576725" to="1345635297" priority="4" type="highway.unclassified" spreadType="center" shape="245.44,88.10 224.29,83.44 220.02,80.89 217.20,76.47">
        <lane id="119895933#1_0" index="0" disallow="tram rail_urban rail rail_electric rail_fast ship container cable_car subway aircraft wheelchair scooter drone" speed="13.89" length="28.22" shape="242.37,87.42 224.29,83.44 220.02,80.89 217.47,76.90"/>
    </edge>
    <edge id="119896132#0" from="1345635307" to="1345635348" priority="4" type="highway.unclassified" spreadType="center">
        <lane id="119896132#0_0" index="0" disallow="tram rail_urban rail rail_electric rail_fast ship container cable_car subway aircraft wheelchair scooter drone" speed="13.89" length="1.31" shape="362.38,66.88 363.69,66.74"/>
    </edge>
    <edge id="119896132#1" from="1345635348" to="317578167" priority="4" type="highway.unclassified" spreadType="center" shape="366.52,66.45 374.53,63.77 380.71,58.97 384.17,56.04">
        <lane id="119896132#1_0" index="0" disallow="tram rail_urban rail rail_electric rail_fast ship container cable_car subway aircraft wheelchair scooter drone" speed="13.89" length="12.23" shape="369.15,65.57 374.53,63.77 379.71,59.74"/>
    </edge>
    <edge id="119896135#0" from="1345635297" to="5554512946" priority="4" type="highway.unclassified" spreadType="center" shape="217.20,76.47 217.46,69.96 218.51,64.98 221.17,59.35 228.04,53.06 239.25,46.88 249.70,45.25 265.99,48.46 287.61,53.71 314.06,59.47 350.51,67.39">
        <lane id="119896135#0_0" index="0" disallow="tram rail_urban rail rail_electric rail_fast ship container cable_car subway aircraft wheelchair scooter drone" speed="13.89" length="147.68" shape="217.22,75.97 217.46,69.96 218.51,64.98 221.17,59.35 228.04,53.06 239.25,46.88 249.70,45.25 265.99,48.46 287.61,53.71 314.06,59.47 345.07,66.21"/>
    </edge>
    <edge id="119896135#1" from="5554512946" to="1345635307" priority="4" type="highway.unclassified" spreadType="center">
        <lane id="119896135#1_0" index="0" disallow="tram rail_urban rail rail_electric rail_fast ship container cable_car subway aircraft wheelchair scooter drone" speed="13.89" length="0.20" shape="351.63,67.78 351.82,67.85"/>
    </edge>
    <edge id="119896135#2" from="1345635307" to="7678171598" priority="4" type="highway.unclassified" spreadType="center">
        <lane id="119896135#2_0" index="0" disallow="tram rail_urban rail rail_electric rail_fast ship container cable_car subway aircraft wheelchair scooter drone" speed="13.89" length="1.28" shape="362.10,70.55 363.34,70.87"/>
    </edge>
    <edge id="254866187#0" from="9159576725" to="9160073115" priority="1" type="highway.service" spreadType="center" shape="245.44,88.10 244.37,92.38 243.30,96.57 242.15,103.24 272.92,112.50 289.50,117.47 300.26,120.70 325.96,128.43 353.50,136.71">
        <lane id="254866187#0_0" index="0" allow="pedestrian delivery bicycle" speed="5.56" length="124.03" shape="244.68,91.15 244.37,92.38 243.30,96.57 242.15,103.24 272.92,112.50 289.50,117.47 300.26,120.70 325.96,128.43 349.09,135.38"/>
    </edge>
    <edge id="254866187#1" from="9160073115" to="2606564300" priority="1" type="highway.service" spreadType="center" shape="353.50,136.71 364.37,140.65 365.52,144.20 358.08,152.24 344.76,166.65 323.98,189.12 314.95,198.88 308.89,205.43 303.93,210.80">
        <lane id="254866187#1_0" index="0" allow="pedestrian delivery bicycle" speed="5.56" length="101.09" shape="358.12,138.38 364.37,140.65 365.52,144.20 358.08,152.24 344.76,166.65 323.98,189.12 314.95,198.88 308.89,205.43 303.93,210.80"/>
    </edge>
    <edge id="254940320#0" from="5554500864" to="317578421" priority="11" type="highway.secondary" spreadType="center">
        <lane id="254940320#0_0" index="0" disallow="tram rail_urban rail rail_electric rail_fast ship container cable_car subway aircraft wheelchair scooter drone" speed="8.33" length="6.54" shape="395.96,134.28 392.41,128.79"/>
        <param key="ref" value="D 330"/>
    </edge>
    <edge id="254940320#1" from="317578421" to="5554500862" priority="11" type="highway.secondary" spreadType="center">
        <lane id="254940320#1_0" index="0" disallow="tram rail_urban rail rail_electric rail_fast ship container cable_car subway aircraft wheelchair scooter drone" speed="8.33" length="2.27" shape="389.86,124.57 388.74,122.60"/>
        <param key="ref" value="D 330"/>
    </edge>
    <edge id="286821551#0" from="317578165" to="317578154" priority="11" type="highway.secondary" spreadType="center" shape="387.51,77.03 392.09,78.17 396.18,83.70">
        <lane id="286821551#0_0" index="0" disallow="tram rail_urban rail rail_electric rail_fast ship container cable_car subway aircraft wheelchair scooter drone" speed="27.78" length="6.01" shape="387.62,77.06 392.09,78.17 392.92,79.30"/>
    </edge>
    <edge id="286821551#1" from="317578154" to="317578220" priority="11" type="highway.secondary" spreadType="center" shape="396.18,83.70 397.24,90.73 396.96,98.72 396.04,103.60">
        <lane id="286821551#1_0" index="0" disallow="tram rail_urban rail rail_electric rail_fast ship container cable_car subway aircraft wheelchair scooter drone" speed="27.78" length="16.97" shape="396.46,85.58 397.24,90.73 396.96,98.72 396.26,102.42"/>
    </edge>
    <edge id="286821551#2" from="317578220" to="1345622003" priority="11" type="highway.secondary" spreadType="center">
        <lane id="286821551#2_0" index="0" disallow="tram rail_urban rail rail_electric rail_fast ship container cable_car subway aircraft wheelchair scooter drone" speed="27.78" length="0.20" shape="394.98,106.32 394.91,106.51"/>
    </edge>
    <edge id="286821551#3" from="1345622003" to="317578223" priority="11" type="highway.secondary" spreadType="center" shape="394.56,107.41 392.44,110.44 388.71,112.77 385.02,113.19 382.42,113.02">
        <lane id="286821551#3_0" index="0" disallow="tram rail_urban rail rail_electric rail_fast ship container cable_car subway aircraft wheelchair scooter drone" speed="27.78" length="2.60" shape="391.44,111.06 389.23,112.44"/>
    </edge>
    <edge id="286821551#4" from="317578223" to="317578164" priority="11" type="highway.secondary" spreadType="center" shape="382.42,113.02 379.43,111.09 376.16,106.31 373.72,100.80 373.01,92.95 374.36,85.81 377.02,80.95 377.62,79.85 380.63,77.40 382.55,76.50">
        <lane id="286821551#4_0" index="0" disallow="tram rail_urban rail rail_electric rail_fast ship container cable_car subway aircraft wheelchair scooter drone" speed="27.78" length="29.38" shape="377.90,108.85 376.16,106.31 373.72,100.80 373.01,92.95 374.36,85.81 376.82,81.31"/>
    </edge>
    <edge id="286821551#5" from="317578164" to="317578165" priority="11" type="highway.secondary" spreadType="center">
        <lane id="286821551#5_0" index="0" disallow="tram rail_urban rail rail_electric rail_fast ship container cable_car subway aircraft wheelchair scooter drone" speed="27.78" length="0.20" shape="387.62,77.04 387.82,77.06"/>
    </edge>
    <edge id="28891432#0" from="317578164" to="317578167" priority="11" type="highway.secondary" spreadType="center" shape="382.55,76.50 383.12,65.85 384.17,56.04">
        <lane id="28891432#0_0" index="0" disallow="tram rail_urban rail rail_electric rail_fast ship container cable_car subway aircraft wheelchair scooter drone" speed="27.78" length="8.62" shape="382.88,70.40 383.12,65.85 383.55,61.80"/>
        <param key="ref" value="D 330"/>
    </edge>
    <edge id="28891432#1" from="317578167" to="317577964" priority="11" type="highway.secondary" spreadType="center" shape="384.17,56.04 384.43,44.78 382.80,37.56 379.55,30.18 375.10,23.08 368.06,15.81 359.77,10.15 351.98,6.66 343.27,3.94 332.86,2.35 318.74,3.64">
        <lane id="28891432#1_0" index="0" disallow="tram rail_urban rail rail_electric rail_fast ship container cable_car subway aircraft wheelchair scooter drone" speed="27.78" length="94.89" shape="384.23,53.52 384.43,44.78 382.80,37.56 379.55,30.18 375.10,23.08 368.06,15.81 359.77,10.15 351.98,6.66 343.27,3.94 332.86,2.35 318.97,3.62"/>
        <param key="ref" value="D 330"/>
    </edge>
    <edge id="28891474" from="317577964" to="317578154" priority="11" type="highway.secondary" spreadType="center" shape="318.52,0.46 331.35,0.00 341.62,0.50 343.70,0.93 352.61,2.74 362.88,6.79 372.78,12.52 380.47,18.53 386.84,25.86 391.91,34.16 394.06,39.97 395.55,52.41 396.55,64.11 397.08,76.79 396.58,80.61 396.18,83.70">
        <lane id="28891474_0" index="0" disallow="tram rail_urban rail rail_electric rail_fast ship container cable_car subway aircraft wheelchair scooter drone" speed="27.78" length="130.42" shape="318.76,0.46 331.35,0.00 341.62,0.50 343.70,0.93 352.61,2.74 362.88,6.79 372.78,12.52 380.47,18.53 386.84,25.86 391.91,34.16 394.06,39.97 395.55,52.41 396.55,64.11 397.08,76.79 396.88,78.27"/>
        <param key="ref" value="D 330"/>
    </edge>
    <edge id="28891493" from="1345622003" to="192689352" priority="11" type="highway.secondary" spreadType="center" shape="394.56,107.41 396.31,113.67 397.89,124.03 406.35,140.91 413.83,156.35 416.31,162.63 419.06,169.59 420.51,174.46 422.80,182.16 425.41,194.91 428.93,221.16 429.94,252.20 429.30,275.69 428.89,285.04 425.69,296.83 423.70,302.74 421.16,309.49 416.01,318.85 413.03,324.24 403.32,336.92 394.70,348.32 392.03,352.04 389.07,358.11 387.41,366.78">
        <lane id="28891493_0" index="0" disallow="tram rail_urban rail rail_electric rail_fast ship container cable_car subway aircraft wheelchair scooter drone" speed="8.33" length="271.83" shape="395.87,112.11 396.31,113.67 397.89,124.03 406.35,140.91 413.83,156.35 416.31,162.63 419.06,169.59 420.51,174.46 422.80,182.16 425.41,194.91 428.93,221.16 429.94,252.20 429.30,275.69 428.89,285.04 425.69,296.83 423.70,302.74 421.16,309.49 416.01,318.85 413.03,324.24 403.32,336.92 394.70,348.32 392.03,352.04 389.07,358.11 387.41,366.78"/>
        <param key="ref" value="D 330"/>
    </edge>
    <edge id="320454264#0" from="3269708684" to="9987901664" priority="1" type="highway.service" spreadType="center" shape="340.11,35.15 343.90,36.00 351.02,46.35 351.34,59.14 351.05,62.08">
        <lane id="320454264#0_0" index="0" allow="pedestrian delivery bicycle" speed="5.56" length="29.41" shape="340.11,35.15 343.90,36.00 351.02,46.35 351.34,59.14 351.32,59.30"/>
    </edge>
    <edge id="320454264#1" from="9987901664" to="5554512946" priority="1" type="highway.service" spreadType="center">
        <lane id="320454264#1_0" index="0" allow="pedestrian delivery bicycle" speed="5.56" length="0.20" shape="351.02,62.38 351.00,62.57"/>
    </edge>