<?xml version="1.0" encoding="UTF-8"?>

<!-- generated on 2024-09-03 01:38:35.475429 by randomTrips.py UNKNOWN
<configuration>
    <net-file value="train_files/roundabout/hard/outputs/map(90)_dict/map(90)/map(90).net.xml"/>
    <output-trip-file value="train_files/roundabout/hard/outputs/map(90)_dict/map(90)/map(90).trips.xml"/>
    <fringe-factor value="max"/>
    <validate value="True"/>
    <period value="0.72"/>
</configuration>
-->

<!-- generated on 2024-09-03 01:38:35 by Eclipse SUMO duarouter Version 1.20.0
<configuration xmlns:xsi="http://www.w3.org/2001/XMLSchema-instance" xsi:noNamespaceSchemaLocation="http://sumo.dlr.de/xsd/duarouterConfiguration.xsd">

    <input>
        <net-file value="train_files/roundabout/hard/outputs/map(90)_dict/map(90)/map(90).net.xml"/>
        <route-files value="train_files/roundabout/hard/outputs/map(90)_dict/map(90)/map(90).trips.xml"/>
    </input>

    <output>
        <output-file value="train_files/roundabout/hard/outputs/map(90)_dict/map(90)/map(90).trips.xml.tmp"/>
        <alternatives-output value="NUL"/>
        <write-trips value="true"/>
    </output>

    <time>
        <begin value="0"/>
        <end value="3600"/>
    </time>

    <report>
        <no-warnings value="true"/>
        <ignore-errors value="true"/>
        <no-step-log value="true"/>
    </report>

</configuration>
-->

<routes xmlns:xsi="http://www.w3.org/2001/XMLSchema-instance" xsi:noNamespaceSchemaLocation="http://sumo.dlr.de/xsd/routes_file.xsd">
    <trip id="2" depart="1.44" from="49674164#0" to="25226697#3"/>
    <trip id="3" depart="2.16" from="888744725#0" to="-145398224#0"/>
    <trip id="6" depart="4.32" from="-25226668#2" to="-251608797#0"/>
    <trip id="7" depart="5.04" from="25227098#0" to="25226668#2"/>
    <trip id="8" depart="5.76" from="145398224#0" to="25226697#3"/>
    <trip id="10" depart="7.20" from="49674164#0" to="25226697#3"/>
    <trip id="11" depart="7.92" from="251608797#0" to="-251608797#0"/>
    <trip id="14" depart="10.08" from="49674164#0" to="25226697#3"/>
    <trip id="15" depart="10.80" from="49674164#0" to="49674157#2"/>
    <trip id="16" depart="11.52" from="25226698#0" to="881058731#1"/>
    <trip id="17" depart="12.24" from="251608797#0" to="25226668#2"/>
    <trip id="18" depart="12.96" from="49674164#0" to="25226697#3"/>
    <trip id="19" depart="13.68" from="888744725#0" to="25226697#3"/>
    <trip id="22" depart="15.84" from="-25226668#2" to="-251608797#0"/>
    <trip id="23" depart="16.56" from="-25226668#2" to="-251608797#0"/>
    <trip id="24" depart="17.28" from="25227098#0" to="-25227098#0"/>
    <trip id="25" depart="18.00" from="251608797#0" to="-251608797#0"/>
    <trip id="26" depart="18.72" from="145398224#0" to="881058731#1"/>
    <trip id="28" depart="20.16" from="145398224#0" to="49674157#2"/>
    <trip id="30" depart="21.60" from="888744725#0" to="25226697#3"/>
    <trip id="31" depart="22.32" from="25226698#0" to="25226697#3"/>
    <trip id="32" depart="23.04" from="49674164#0" to="49674157#2"/>
    <trip id="33" depart="23.76" from="145398224#0" to="-145398224#0"/>
    <trip id="34" depart="24.48" from="251608797#0" to="-251608797#0"/>
    <trip id="35" depart="25.20" from="145398224#0" to="881058731#1"/>
    <trip id="37" depart="26.64" from="25227098#0" to="-25227098#0"/>
    <trip id="42" depart="30.24" from="251608797#0" to="-251608797#0"/>
    <trip id="47" depart="33.84" from="-25226668#2" to="-25227098#0"/>
    <trip id="49" depart="35.28" from="888744725#0" to="881058731#1"/>
    <trip id="51" depart="36.72" from="25227098#0" to="25226668#2"/>
    <trip id="52" depart="37.44" from="145398224#0" to="25226697#3"/>
    <trip id="53" depart="38.16" from="-25226668#2" to="25226668#2"/>
    <trip id="54" depart="38.88" from="25226698#0" to="881058731#1"/>
    <trip id="57" depart="41.04" from="888744725#0" to="881058731#1"/>
    <trip id="59" depart="42.48" from="25227098#0" to="-251608797#0"/>
    <trip id="62" depart="44.64" from="-25226668#2" to="-25227098#0"/>
    <trip id="64" depart="46.08" from="888744725#0" to="49674157#2"/>
    <trip id="66" depart="47.52" from="888744725#0" to="881058731#1"/>
    <trip id="67" depart="48.24" from="-25226668#2" to="25226668#2"/>
    <trip id="71" depart="51.12" from="145398224#0" to="881058731#1"/>
    <trip id="72" depart="51.84" from="251608797#0" to="-251608797#0"/>
    <trip id="73" depart="52.56" from="25226698#0" to="49674157#2"/>
    <trip id="75" depart="54.00" from="888744725#0" to="25226697#3"/>
    <trip id="77" depart="55.44" from="-25226668#2" to="-251608797#0"/>
    <trip id="81" depart="58.32" from="145398224#0" to="881058731#1"/>
    <trip id="82" depart="59.04" from="888744725#0" to="-145398224#0"/>
    <trip id="83" depart="59.76" from="145398224#0" to="25226697#3"/>
    <trip id="84" depart="60.48" from="145398224#0" to="-145398224#0"/>
    <trip id="86" depart="61.92" from="25226698#0" to="49674157#2"/>
    <trip id="88" depart="63.36" from="-25226668#2" to="25226668#2"/>
    <trip id="89" depart="64.08" from="251608797#0" to="25226668#2"/>
    <trip id="90" depart="64.80" from="49674164#0" to="25226697#3"/>
    <trip id="91" depart="65.52" from="888744725#0" to="-145398224#0"/>
    <trip id="92" depart="66.24" from="251608797#0" to="-25227098#0"/>
    <trip id="95" depart="68.40" from="251608797#0" to="-251608797#0"/>
    <trip id="96" depart="69.12" from="145398224#0" to="881058731#1"/>
    <trip id="97" depart="69.84" from="25226698#0" to="881058731#1"/>
    <trip id="99" depart="71.28" from="888744725#0" to="49674157#2"/>
    <trip id="100" depart="72.00" from="888744725#0" to="881058731#1"/>
    <trip id="105" depart="75.60" from="145398224#0" to="49674157#2"/>
    <trip id="107" depart="77.04" from="888744725#0" to="881058731#1"/>
    <trip id="108" depart="77.76" from="25226698#0" to="49674157#2"/>
    <trip id="110" depart="79.20" from="888744725#0" to="25226697#3"/>
    <trip id="111" depart="79.92" from="25226698#0" to="49674157#2"/>
    <trip id="113" depart="81.36" from="25226698#0" to="49674157#2"/>
    <trip id="114" depart="82.08" from="145398224#0" to="881058731#1"/>
    <trip id="115" depart="82.80" from="-25226668#2" to="-251608797#0"/>
    <trip id="117" depart="84.24" from="145398224#0" to="-145398224#0"/>
    <trip id="121" depart="87.12" from="25226698#0" to="881058731#1"/>
    <trip id="122" depart="87.84" from="145398224#0" to="49674157#2"/>
    <trip id="124" depart="89.28" from="25227098#0" to="-25227098#0"/>
    <trip id="126" depart="90.72" from="-25226668#2" to="25226668#2"/>
    <trip id="127" depart="91.44" from="888744725#0" to="881058731#1"/>
    <trip id="128" depart="92.16" from="-25226668#2" to="-251608797#0"/>
    <trip id="129" depart="92.88" from="145398224#0" to="881058731#1"/>
    <trip id="130" depart="93.60" from="888744725#0" to="881058731#1"/>
    <trip id="131" depart="94.32" from="251608797#0" to="-251608797#0"/>
    <trip id="132" depart="95.04" from="49674164#0" to="25226697#3"/>
    <trip id="138" depart="99.36" from="-25226668#2" to="25226668#2"/>
    <trip id="139" depart="100.08" from="145398224#0" to="25226697#3"/>
    <trip id="141" depart="101.52" from="25227098#0" to="-251608797#0"/>
    <trip id="142" depart="102.24" from="25226698#0" to="881058731#1"/>
    <trip id="144" depart="103.68" from="251608797#0" to="-251608797#0"/>
    <trip id="146" depart="105.12" from="25227098#0" to="-251608797#0"/>
    <trip id="151" depart="108.72" from="49674164#0" to="25226697#3"/>
    <trip id="152" depart="109.44" from="145398224#0" to="-145398224#0"/>
    <trip id="154" depart="110.88" from="49674164#0" to="881058731#1"/>
    <trip id="156" depart="112.32" from="145398224#0" to="-145398224#0"/>
    <trip id="157" depart="113.04" from="49674164#0" to="881058731#1"/>
    <trip id="159" depart="114.48" from="145398224#0" to="881058731#1"/>
    <trip id="160" depart="115.20" from="888744725#0" to="881058731#1"/>
    <trip id="161" depart="115.92" from="49674164#0" to="881058731#1"/>
    <trip id="164" depart="118.08" from="49674164#0" to="881058731#1"/>
    <trip id="167" depart="120.24" from="888744725#0" to="881058731#1"/>
    <trip id="168" depart="120.96" from="145398224#0" to="49674157#2"/>
    <trip id="171" depart="123.12" from="-25226668#2" to="-251608797#0"/>
    <trip id="174" depart="125.28" from="25227098#0" to="-25227098#0"/>
    <trip id="176" depart="126.72" from="888744725#0" to="-145398224#0"/>
    <trip id="179" depart="128.88" from="-25226668#2" to="25226668#2"/>
    <trip id="181" depart="130.32" from="25227098#0" to="25226668#2"/>
    <trip id="183" depart="131.76" from="145398224#0" to="25226697#3"/>
    <trip id="185" depart="133.20" from="25226698#0" to="49674157#2"/>
    <trip id="186" depart="133.92" from="49674164#0" to="25226697#3"/>
    <trip id="188" depart="135.36" from="25227098#0" to="-25227098#0"/>
    <trip id="191" depart="137.52" from="251608797#0" to="-25227098#0"/>
    <trip id="192" depart="138.24" from="251608797#0" to="-25227098#0"/>
    <trip id="193" depart="138.96" from="-25226668#2" to="-25227098#0"/>
    <trip id="194" depart="139.68" from="888744725#0" to="25226697#3"/>
    <trip id="195" depart="140.40" from="888744725#0" to="25226697#3"/>
    <trip id="196" depart="141.12" from="251608797#0" to="25226668#2"/>
    <trip id="197" depart="141.84" from="-25226668#2" to="-25227098#0"/>
    <trip id="198" depart="142.56" from="25226698#0" to="25226697#3"/>
    <trip id="199" depart="143.28" from="25227098#0" to="25226668#2"/>
    <trip id="201" depart="144.72" from="25226698#0" to="881058731#1"/>
    <trip id="203" depart="146.16" from="-25226668#2" to="25226668#2"/>
    <trip id="204" depart="146.88" from="25227098#0" to="-25227098#0"/>
    <trip id="205" depart="147.60" from="49674164#0" to="49674157#2"/>
    <trip id="206" depart="148.32" from="25227098#0" to="-251608797#0"/>
    <trip id="207" depart="149.04" from="145398224#0" to="-145398224#0"/>
    <trip id="211" depart="151.92" from="145398224#0" to="25226697#3"/>
    <trip id="214" depart="154.08" from="49674164#0" to="49674157#2"/>
    <trip id="215" depart="154.80" from="-25226668#2" to="-25227098#0"/>
    <trip id="216" depart="155.52" from="145398224#0" to="881058731#1"/>
    <trip id="218" depart="156.96" from="145398224#0" to="49674157#2"/>
    <trip id="219" depart="157.68" from="25226698#0" to="49674157#2"/>
    <trip id="222" depart="159.84" from="888744725#0" to="25226697#3"/>
    <trip id="225" depart="162.00" from="888744725#0" to="49674157#2"/>
    <trip id="227" depart="163.44" from="145398224#0" to="25226697#3"/>
    <trip id="229" depart="164.88" from="25227098#0" to="-251608797#0"/>
    <trip id="230" depart="165.60" from="-25226668#2" to="-25227098#0"/>
    <trip id="233" depart="167.76" from="145398224#0" to="25226697#3"/>
    <trip id="235" depart="169.20" from="251608797#0" to="25226668#2"/>
    <trip id="236" depart="169.92" from="251608797#0" to="-251608797#0"/>
    <trip id="239" depart="172.08" from="49674164#0" to="49674157#2"/>
    <trip id="242" depart="174.24" from="49674164#0" to="881058731#1"/>
    <trip id="244" depart="175.68" from="25226698#0" to="25226697#3"/>
    <trip id="248" depart="178.56" from="251608797#0" to="-251608797#0"/>
    <trip id="251" depart="180.72" from="251608797#0" to="25226668#2"/>
    <trip id="253" depart="182.16" from="-25226668#2" to="25226668#2"/>
    <trip id="254" depart="182.88" from="-25226668#2" to="-25227098#0"/>
    <trip id="257" depart="185.04" from="49674164#0" to="49674157#2"/>
    <trip id="258" depart="185.76" from="145398224#0" to="-145398224#0"/>
    <trip id="259" depart="186.48" from="-25226668#2" to="25226668#2"/>
    <trip id="264" depart="190.08" from="-25226668#2" to="-251608797#0"/>
    <trip id="268" depart="192.96" from="145398224#0" to="25226697#3"/>
    <trip id="270" depart="194.40" from="49674164#0" to="881058731#1"/>
    <trip id="277" depart="199.44" from="49674164#0" to="25226697#3"/>
    <trip id="280" depart="201.60" from="251608797#0" to="-25227098#0"/>
    <trip id="282" depart="203.04" from="49674164#0" to="49674157#2"/>
    <trip id="285" depart="205.20" from="25227098#0" to="25226668#2"/>
    <trip id="286" depart="205.92" from="49674164#0" to="881058731#1"/>
    <trip id="287" depart="206.64" from="145398224#0" to="49674157#2"/>
    <trip id="289" depart="208.08" from="25226698#0" to="49674157#2"/>
    <trip id="290" depart="208.80" from="145398224#0" to="49674157#2"/>
    <trip id="293" depart="210.96" from="25226698#0" to="25226697#3"/>
    <trip id="296" depart="213.12" from="145398224#0" to="49674157#2"/>
    <trip id="298" depart="214.56" from="25227098#0" to="-251608797#0"/>
    <trip id="301" depart="216.72" from="25226698#0" to="49674157#2"/>
    <trip id="303" depart="218.16" from="25226698#0" to="49674157#2"/>
    <trip id="304" depart="218.88" from="-25226668#2" to="-251608797#0"/>
    <trip id="305" depart="219.60" from="25227098#0" to="-25227098#0"/>
    <trip id="306" depart="220.32" from="25227098#0" to="25226668#2"/>
    <trip id="309" depart="222.48" from="25227098#0" to="-251608797#0"/>
    <trip id="310" depart="223.20" from="145398224#0" to="-145398224#0"/>
    <trip id="311" depart="223.92" from="145398224#0" to="-145398224#0"/>
    <trip id="312" depart="224.64" from="25226698#0" to="49674157#2"/>
    <trip id="314" depart="226.08" from="25226698#0" to="49674157#2"/>
    <trip id="316" depart="227.52" from="145398224#0" to="-145398224#0"/>
    <trip id="318" depart="228.96" from="145398224#0" to="-145398224#0"/>
    <trip id="323" depart="232.56" from="888744725#0" to="25226697#3"/>
    <trip id="325" depart="234.00" from="145398224#0" to="-145398224#0"/>
    <trip id="329" depart="236.88" from="-25226668#2" to="-251608797#0"/>
    <trip id="331" depart="238.32" from="888744725#0" to="-145398224#0"/>
    <trip id="332" depart="239.04" from="49674164#0" to="25226697#3"/>
    <trip id="335" depart="241.20" from="25226698#0" to="881058731#1"/>
    <trip id="338" depart="243.36" from="49674164#0" to="881058731#1"/>
    <trip id="340" depart="244.80" from="25227098#0" to="-251608797#0"/>
    <trip id="341" depart="245.52" from="145398224#0" to="-145398224#0"/>
    <trip id="342" depart="246.24" from="-25226668#2" to="25226668#2"/>
    <trip id="343" depart="246.96" from="25227098#0" to="-25227098#0"/>
    <trip id="344" depart="247.68" from="145398224#0" to="25226697#3"/>
    <trip id="345" depart="248.40" from="25227098#0" to="25226668#2"/>
    <trip id="347" depart="249.84" from="49674164#0" to="25226697#3"/>
    <trip id="349" depart="251.28" from="251608797#0" to="25226668#2"/>
    <trip id="358" depart="257.76" from="-25226668#2" to="25226668#2"/>
    <trip id="359" depart="258.48" from="251608797#0" to="-251608797#0"/>
    <trip id="361" depart="259.92" from="49674164#0" to="25226697#3"/>
    <trip id="362" depart="260.64" from="888744725#0" to="881058731#1"/>
    <trip id="363" depart="261.36" from="25227098#0" to="-251608797#0"/>
    <trip id="365" depart="262.80" from="25226698#0" to="25226697#3"/>
    <trip id="369" depart="265.68" from="251608797#0" to="-25227098#0"/>
    <trip id="376" depart="270.72" from="251608797#0" to="25226668#2"/>
    <trip id="377" depart="271.44" from="888744725#0" to="25226697#3"/>
    <trip id="380" depart="273.60" from="49674164#0" to="25226697#3"/>
    <trip id="382" depart="275.04" from="25226698#0" to="881058731#1"/>
    <trip id="383" depart="275.76" from="25226698#0" to="25226697#3"/>
    <trip id="385" depart="277.20" from="25227098#0" to="-251608797#0"/>
    <trip id="388" depart="279.36" from="888744725#0" to="881058731#1"/>
    <trip id="392" depart="282.24" from="145398224#0" to="49674157#2"/>
    <trip id="396" depart="285.12" from="888744725#0" to="881058731#1"/>
    <trip id="397" depart="285.84" from="145398224#0" to="49674157#2"/>
    <trip id="399" depart="287.28" from="25226698#0" to="49674157#2"/>
    <trip id="406" depart="292.32" from="145398224#0" to="25226697#3"/>
    <trip id="407" depart="293.04" from="25227098#0" to="-251608797#0"/>
    <trip id="409" depart="294.48" from="49674164#0" to="25226697#3"/>
    <trip id="413" depart="297.36" from="-25226668#2" to="25226668#2"/>
    <trip id="418" depart="300.96" from="25227098#0" to="-251608797#0"/>
    <trip id="419" depart="301.68" from="25226698#0" to="881058731#1"/>
    <trip id="422" depart="303.84" from="49674164#0" to="881058731#1"/>
    <trip id="423" depart="304.56" from="251608797#0" to="-25227098#0"/>
    <trip id="424" depart="305.28" from="49674164#0" to="49674157#2"/>
    <trip id="425" depart="306.00" from="888744725#0" to="-145398224#0"/>
    <trip id="427" depart="307.44" from="888744725#0" to="881058731#1"/>
    <trip id="433" depart="311.76" from="251608797#0" to="-25227098#0"/>
    <trip id="435" depart="313.20" from="25226698#0" to="49674157#2"/>
    <trip id="436" depart="313.92" from="145398224#0" to="-145398224#0"/>
    <trip id="437" depart="314.64" from="888744725#0" to="25226697#3"/>
    <trip id="438" depart="315.36" from="145398224#0" to="881058731#1"/>
    <trip id="442" depart="318.24" from="888744725#0" to="25226697#3"/>
    <trip id="445" depart="320.40" from="25227098#0" to="-25227098#0"/>
    <trip id="446" depart="321.12" from="145398224#0" to="49674157#2"/>
    <trip id="451" depart="324.72" from="888744725#0" to="25226697#3"/>
    <trip id="455" depart="327.60" from="25226698#0" to="881058731#1"/>
    <trip id="457" depart="329.04" from="25227098#0" to="-25227098#0"/>
    <trip id="462" depart="332.64" from="25227098#0" to="-25227098#0"/>
    <trip id="463" depart="333.36" from="25226698#0" to="25226697#3"/>
    <trip id="466" depart="335.52" from="145398224#0" to="-145398224#0"/>
    <trip id="467" depart="336.24" from="25226698#0" to="881058731#1"/>
    <trip id="468" depart="336.96" from="25226698#0" to="881058731#1"/>
    <trip id="471" depart="339.12" from="49674164#0" to="49674157#2"/>
    <trip id="473" depart="340.56" from="888744725#0" to="-145398224#0"/>
    <trip id="474" depart="341.28" from="888744725#0" to="881058731#1"/>
    <trip id="475" depart="342.00" from="49674164#0" to="881058731#1"/>
    <trip id="476" depart="342.72" from="888744725#0" to="49674157#2"/>
    <trip id="478" depart="344.16" from="-25226668#2" to="25226668#2"/>
    <trip id="479" depart="344.88" from="25226698#0" to="25226697#3"/>
    <trip id="481" depart="346.32" from="49674164#0" to="881058731#1"/>
    <trip id="482" depart="347.04" from="-25226668#2" to="-251608797#0"/>
    <trip id="484" depart="348.48" from="25226698#0" to="881058731#1"/>
    <trip id="485" depart="349.20" from="145398224#0" to="-145398224#0"/>
    <trip id="486" depart="349.92" from="49674164#0" to="881058731#1"/>
    <trip id="487" depart="350.64" from="251608797#0" to="-25227098#0"/>
    <trip id="489" depart="352.08" from="251608797#0" to="25226668#2"/>
    <trip id="491" depart="353.52" from="-25226668#2" to="25226668#2"/>
    <trip id="497" depart="357.84" from="888744725#0" to="-145398224#0"/>
    <trip id="498" depart="358.56" from="251608797#0" to="25226668#2"/>
    <trip id="499" depart="359.28" from="888744725#0" to="49674157#2"/>
    <trip id="501" depart="360.72" from="25226698#0" to="881058731#1"/>
    <trip id="502" depart="361.44" from="251608797#0" to="-25227098#0"/>
    <trip id="503" depart="362.16" from="145398224#0" to="-145398224#0"/>
    <trip id="508" depart="365.76" from="-25226668#2" to="25226668#2"/>
    <trip id="512" depart="368.64" from="145398224#0" to="881058731#1"/>
    <trip id="514" depart="370.08" from="145398224#0" to="-145398224#0"/>
    <trip id="519" depart="373.68" from="145398224#0" to="-145398224#0"/>
    <trip id="523" depart="376.56" from="-25226668#2" to="25226668#2"/>
    <trip id="524" depart="377.28" from="888744725#0" to="-145398224#0"/>
    <trip id="525" depart="378.00" from="49674164#0" to="881058731#1"/>
    <trip id="527" depart="379.44" from="888744725#0" to="-145398224#0"/>
    <trip id="529" depart="380.88" from="25227098#0" to="25226668#2"/>
    <trip id="530" depart="381.60" from="888744725#0" to="-145398224#0"/>
    <trip id="532" depart="383.04" from="-25226668#2" to="-251608797#0"/>
    <trip id="533" depart="383.76" from="25227098#0" to="25226668#2"/>
    <trip id="541" depart="389.52" from="251608797#0" to="25226668#2"/>
    <trip id="544" depart="391.68" from="251608797#0" to="-251608797#0"/>
    <trip id="545" depart="392.40" from="888744725#0" to="-145398224#0"/>
    <trip id="549" depart="395.28" from="25227098#0" to="25226668#2"/>
    <trip id="552" depart="397.44" from="49674164#0" to="881058731#1"/>
    <trip id="553" depart="398.16" from="49674164#0" to="881058731#1"/>
    <trip id="554" depart="398.88" from="25227098#0" to="-25227098#0"/>
    <trip id="555" depart="399.60" from="25227098#0" to="-251608797#0"/>
    <trip id="556" depart="400.32" from="25227098#0" to="-251608797#0"/>
    <trip id="560" depart="403.20" from="49674164#0" to="881058731#1"/>
    <trip id="561" depart="403.92" from="49674164#0" to="25226697#3"/>
    <trip id="563" depart="405.36" from="888744725#0" to="49674157#2"/>
    <trip id="565" depart="406.80" from="25227098#0" to="-25227098#0"/>
    <trip id="571" depart="411.12" from="251608797#0" to="-25227098#0"/>
    <trip id="575" depart="414.00" from="145398224#0" to="25226697#3"/>
    <trip id="576" depart="414.72" from="25227098#0" to="-251608797#0"/>
    <trip id="577" depart="415.44" from="25227098#0" to="25226668#2"/>
    <trip id="581" depart="418.32" from="25227098#0" to="25226668#2"/>
    <trip id="584" depart="420.48" from="-25226668#2" to="-25227098#0"/>
    <trip id="585" depart="421.20" from="145398224#0" to="-145398224#0"/>
    <trip id="589" depart="424.08" from="25227098#0" to="25226668#2"/>
    <trip id="590" depart="424.80" from="49674164#0" to="49674157#2"/>
    <trip id="593" depart="426.96" from="888744725#0" to="881058731#1"/>
    <trip id="595" depart="428.40" from="25227098#0" to="-25227098#0"/>
    <trip id="599" depart="431.28" from="888744725#0" to="-145398224#0"/>
    <trip id="601" depart="432.72" from="25227098#0" to="25226668#2"/>
    <trip id="602" depart="433.44" from="251608797#0" to="-25227098#0"/>
    <trip id="603" depart="434.16" from="251608797#0" to="-25227098#0"/>
    <trip id="605" depart="435.60" from="-25226668#2" to="25226668#2"/>
    <trip id="607" depart="437.04" from="49674164#0" to="49674157#2"/>
    <trip id="611" depart="439.92" from="25227098#0" to="-251608797#0"/>
    <trip id="613" depart="441.36" from="49674164#0" to="49674157#2"/>
    <trip id="614" depart="442.08" from="25226698#0" to="881058731#1"/>
    <trip id="615" depart="442.80" from="25226698#0" to="25226697#3"/>
    <trip id="617" depart="444.24" from="25227098#0" to="-251608797#0"/>
    <trip id="618" depart="444.96" from="-25226668#2" to="25226668#2"/>
    <trip id="619" depart="445.68" from="251608797#0" to="-251608797#0"/>
    <trip id="620" depart="446.40" from="-25226668#2" to="25226668#2"/>
    <trip id="621" depart="447.12" from="251608797#0" to="25226668#2"/>
    <trip id="624" depart="449.28" from="49674164#0" to="25226697#3"/>
    <trip id="626" depart="450.72" from="25226698#0" to="49674157#2"/>
    <trip id="628" depart="452.16" from="49674164#0" to="25226697#3"/>
    <trip id="629" depart="452.88" from="251608797#0" to="25226668#2"/>
    <trip id="630" depart="453.60" from="145398224#0" to="-145398224#0"/>
    <trip id="639" depart="460.08" from="49674164#0" to="25226697#3"/>
    <trip id="641" depart="461.52" from="25227098#0" to="-251608797#0"/>
    <trip id="642" depart="462.24" from="49674164#0" to="25226697#3"/>
    <trip id="643" depart="462.96" from="888744725#0" to="881058731#1"/>
    <trip id="645" depart="464.40" from="-25226668#2" to="-25227098#0"/>
    <trip id="646" depart="465.12" from="888744725#0" to="25226697#3"/>
    <trip id="650" depart="468.00" from="49674164#0" to="25226697#3"/>
    <trip id="651" depart="468.72" from="49674164#0" to="49674157#2"/>
    <trip id="652" depart="469.44" from="25227098#0" to="25226668#2"/>
    <trip id="653" depart="470.16" from="25227098#0" to="-25227098#0"/>
    <trip id="654" depart="470.88" from="251608797#0" to="-25227098#0"/>
    <trip id="657" depart="473.04" from="145398224#0" to="-145398224#0"/>
    <trip id="660" depart="475.20" from="49674164#0" to="881058731#1"/>
    <trip id="661" depart="475.92" from="-25226668#2" to="-25227098#0"/>
    <trip id="663" depart="477.36" from="251608797#0" to="-251608797#0"/>
    <trip id="664" depart="478.08" from="49674164#0" to="49674157#2"/>
    <trip id="667" depart="480.24" from="25227098#0" to="-251608797#0"/>
    <trip id="673" depart="484.56" from="888744725#0" to="881058731#1"/>
    <trip id="675" depart="486.00" from="251608797#0" to="25226668#2"/>
    <trip id="676" depart="486.72" from="888744725#0" to="49674157#2"/>
    <trip id="678" depart="488.16" from="145398224#0" to="25226697#3"/>
    <trip id="684" depart="492.48" from="25226698#0" to="881058731#1"/>
    <trip id="687" depart="494.64" from="-25226668#2" to="25226668#2"/>
    <trip id="688" depart="495.36" from="145398224#0" to="881058731#1"/>
    <trip id="690" depart="496.80" from="888744725#0" to="49674157#2"/>
    <trip id="692" depart="498.24" from="-25226668#2" to="-25227098#0"/>
    <trip id="693" depart="498.96" from="49674164#0" to="25226697#3"/>
    <trip id="696" depart="501.12" from="-25226668#2" to="-251608797#0"/>
    <trip id="699" depart="503.28" from="-25226668#2" to="-25227098#0"/>
    <trip id="703" depart="506.16" from="888744725#0" to="25226697#3"/>
    <trip id="704" depart="506.88" from="-25226668#2" to="25226668#2"/>
    <trip id="706" depart="508.32" from="25226698#0" to="25226697#3"/>
    <trip id="709" depart="510.48" from="888744725#0" to="-145398224#0"/>
    <trip id="712" depart="512.64" from="251608797#0" to="25226668#2"/>
    <trip id="714" depart="514.08" from="145398224#0" to="-145398224#0"/>
    <trip id="716" depart="515.52" from="49674164#0" to="25226697#3"/>
    <trip id="717" depart="516.24" from="49674164#0" to="49674157#2"/>
    <trip id="719" depart="517.68" from="25226698#0" to="49674157#2"/>
    <trip id="720" depart="518.40" from="145398224#0" to="49674157#2"/>
    <trip id="721" depart="519.12" from="25226698#0" to="25226697#3"/>
    <trip id="725" depart="522.00" from="-25226668#2" to="-251608797#0"/>
    <trip id="727" depart="523.44" from="25226698#0" to="881058731#1"/>
    <trip id="732" depart="527.04" from="-25226668#2" to="-25227098#0"/>
    <trip id="733" depart="527.76" from="888744725#0" to="49674157#2"/>
    <trip id="736" depart="529.92" from="25226698#0" to="881058731#1"/>
    <trip id="737" depart="530.64" from="25226698#0" to="49674157#2"/>
    <trip id="747" depart="537.84" from="888744725#0" to="881058731#1"/>
    <trip id="754" depart="542.88" from="251608797#0" to="-25227098#0"/>
    <trip id="755" depart="543.60" from="25226698#0" to="25226697#3"/>
    <trip id="758" depart="545.76" from="25227098#0" to="25226668#2"/>
    <trip id="760" depart="547.20" from="145398224#0" to="-145398224#0"/>
    <trip id="762" depart="548.64" from="251608797#0" to="25226668#2"/>
    <trip id="764" depart="550.08" from="25226698#0" to="881058731#1"/>
    <trip id="765" depart="550.80" from="145398224#0" to="881058731#1"/>
    <trip id="772" depart="555.84" from="25226698#0" to="881058731#1"/>
    <trip id="773" depart="556.56" from="49674164#0" to="25226697#3"/>
    <trip id="774" depart="557.28" from="888744725#0" to="25226697#3"/>
    <trip id="776" depart="558.72" from="-25226668#2" to="-251608797#0"/>
    <trip id="778" depart="560.16" from="-25226668#2" to="25226668#2"/>
    <trip id="780" depart="561.60" from="25226698#0" to="25226697#3"/>
    <trip id="781" depart="562.32" from="-25226668#2" to="-25227098#0"/>
    <trip id="782" depart="563.04" from="888744725#0" to="49674157#2"/>
    <trip id="783" depart="563.76" from="25226698#0" to="49674157#2"/>
    <trip id="785" depart="565.20" from="888744725#0" to="25226697#3"/>
    <trip id="786" depart="565.92" from="25226698#0" to="25226697#3"/>
    <trip id="788" depart="567.36" from="49674164#0" to="25226697#3"/>
    <trip id="789" depart="568.08" from="145398224#0" to="881058731#1"/>
    <trip id="790" depart="568.80" from="25226698#0" to="881058731#1"/>
    <trip id="795" depart="572.40" from="888744725#0" to="49674157#2"/>
    <trip id="796" depart="573.12" from="145398224#0" to="25226697#3"/>
    <trip id="798" depart="574.56" from="251608797#0" to="25226668#2"/>
    <trip id="803" depart="578.16" from="25226698#0" to="49674157#2"/>
    <trip id="808" depart="581.76" from="25226698#0" to="25226697#3"/>
    <trip id="810" depart="583.20" from="25226698#0" to="49674157#2"/>
    <trip id="811" depart="583.92" from="25227098#0" to="-25227098#0"/>
    <trip id="814" depart="586.08" from="145398224#0" to="25226697#3"/>
    <trip id="816" depart="587.52" from="49674164#0" to="881058731#1"/>
    <trip id="817" depart="588.24" from="888744725#0" to="-145398224#0"/>
    <trip id="818" depart="588.96" from="251608797#0" to="25226668#2"/>
    <trip id="819" depart="589.68" from="251608797#0" to="25226668#2"/>
    <trip id="821" depart="591.12" from="-25226668#2" to="-25227098#0"/>
    <trip id="823" depart="592.56" from="145398224#0" to="881058731#1"/>
    <trip id="825" depart="594.00" from="25227098#0" to="-25227098#0"/>
    <trip id="832" depart="599.04" from="25226698#0" to="881058731#1"/>
    <trip id="833" depart="599.76" from="25227098#0" to="25226668#2"/>
    <trip id="834" depart="600.48" from="25226698#0" to="49674157#2"/>
    <trip id="835" depart="601.20" from="25226698#0" to="881058731#1"/>
    <trip id="836" depart="601.92" from="49674164#0" to="49674157#2"/>
    <trip id="837" depart="602.64" from="251608797#0" to="-25227098#0"/>
    <trip id="840" depart="604.80" from="25226698#0" to="49674157#2"/>