<?xml version="1.0" encoding="UTF-8"?>

<!-- generated on 2024-09-03 01:38:11 by Eclipse SUMO netconvert Version 1.20.0
<configuration xmlns:xsi="http://www.w3.org/2001/XMLSchema-instance" xsi:noNamespaceSchemaLocation="http://sumo.dlr.de/xsd/netconvertConfiguration.xsd">

    <input>
        <osm-files value="train_files/roundabout/hard/osm_files/map(13).osm"/>
    </input>

    <output>
        <output-file value="train_files/roundabout/hard/outputs/map(13)_dict/map(13)/map(13).net.xml"/>
    </output>

    <projection>
        <proj.utm value="true"/>
    </projection>

    <building_defaults>
        <default.junctions.keep-clear value="false"/>
    </building_defaults>

</configuration>
-->

<net version="1.20" junctionCornerDetail="5" limitTurnSpeed="5.50" xmlns:xsi="http://www.w3.org/2001/XMLSchema-instance" xsi:noNamespaceSchemaLocation="http://sumo.dlr.de/xsd/net_file.xsd">

    <location netOffset="-441891.89,-5405525.05" convBoundary="0.00,0.00,501.77,1469.00" origBoundary="2.208502,48.800046,2.215541,48.813214" projParameter="+proj=utm +zone=31 +ellps=WGS84 +datum=WGS84 +units=m +no_defs"/>

    <type id="highway.cycleway" priority="1" numLanes="1" speed="5.56" allow="bicycle" oneway="0" width="2.00"/>
    <type id="highway.footway" priority="1" numLanes="1" speed="2.78" allow="pedestrian" oneway="1" width="2.00"/>
    <type id="highway.path" priority="1" numLanes="1" speed="5.56" allow="pedestrian bicycle" oneway="0" width="2.00"/>
    <type id="highway.residential" priority="3" numLanes="1" speed="13.89" disallow="tram rail_urban rail rail_electric rail_fast ship container cable_car subway aircraft wheelchair scooter drone" oneway="0"/>
    <type id="highway.secondary" priority="11" numLanes="1" speed="27.78" disallow="tram rail_urban rail rail_electric rail_fast ship container cable_car subway aircraft wheelchair scooter drone" oneway="0"/>
    <type id="highway.service" priority="1" numLanes="1" speed="5.56" allow="pedestrian delivery bicycle" oneway="0"/>
    <type id="highway.trunk_link" priority="8" numLanes="1" speed="22.22" disallow="pedestrian bicycle tram rail_urban rail rail_electric rail_fast ship container cable_car subway aircraft wheelchair scooter drone" oneway="0"/>

    <edge id=":1956440595_0" function="internal">
        <lane id=":1956440595_0_0" index="0" allow="bicycle" speed="5.56" length="9.51" shape="254.70,1265.81 253.44,1263.41 253.22,1261.51 253.33,1259.47 253.05,1256.64"/>
    </edge>
    <edge id=":1956440595_1" function="internal">
        <lane id=":1956440595_1_0" index="0" allow="bicycle" speed="3.65" length="4.67" shape="254.70,1265.81 254.66,1264.37 255.08,1263.58 255.97,1263.45 257.31,1263.97"/>
    </edge>
    <edge id=":1956440595_2" function="internal">
        <lane id=":1956440595_2_0" index="0" allow="delivery bicycle" speed="5.56" length="9.37" shape="250.38,1265.04 251.99,1263.52 252.98,1261.61 253.33,1259.32 253.05,1256.64"/>
    </edge>
    <edge id=":199462978_0" function="internal">
        <lane id=":199462978_0_0" index="0" disallow="tram rail_urban rail rail_electric rail_fast ship container cable_car subway aircraft wheelchair scooter drone" speed="13.89" length="10.92" shape="234.32,1301.39 231.92,1299.45 230.07,1298.13 227.97,1297.18 224.82,1296.36"/>
    </edge>
    <edge id=":199462978_1" function="internal">
        <lane id=":199462978_1_0" index="0" disallow="tram rail_urban rail rail_electric rail_fast ship container cable_car subway aircraft wheelchair scooter drone" speed="13.89" length="9.93" shape="235.29,1295.04 232.25,1296.04 230.09,1296.68 227.92,1296.83 224.82,1296.36"/>
        <lane id=":199462978_1_1" index="1" disallow="tram rail_urban rail rail_electric rail_fast ship container cable_car subway aircraft wheelchair scooter drone" speed="13.89" length="9.93" shape="234.31,1291.99 231.74,1292.86 229.93,1293.44 228.10,1293.60 225.48,1293.23"/>
    </edge>
    <edge id=":199462980_0" function="internal">
        <lane id=":199462980_0_0" index="0" disallow="tram rail_urban rail rail_electric rail_fast ship container cable_car subway aircraft wheelchair scooter drone" speed="7.44" length="8.40" shape="222.13,1295.80 219.66,1295.52 217.58,1295.79 215.86,1296.61 214.52,1297.98"/>
    </edge>
    <edge id=":199462980_1" function="internal">
        <lane id=":199462980_1_0" index="0" disallow="tram rail_urban rail rail_electric rail_fast ship container cable_car subway aircraft wheelchair scooter drone" speed="11.66" length="12.94" shape="222.13,1295.80 218.78,1294.76 215.87,1293.13 213.39,1290.93 211.36,1288.14"/>
        <lane id=":199462980_1_1" index="1" disallow="tram rail_urban rail rail_electric rail_fast ship container cable_car subway aircraft wheelchair scooter drone" speed="11.09" length="12.94" shape="223.67,1292.85 220.56,1291.90 217.89,1290.46 215.65,1288.52 213.85,1286.08"/>
    </edge>
    <edge id=":199462980_3" function="internal">
        <lane id=":199462980_3_0" index="0" disallow="tram rail_urban rail rail_electric rail_fast ship container cable_car subway aircraft wheelchair scooter drone" speed="7.58" length="8.50" shape="211.90,1296.15 212.72,1294.43 212.90,1292.52 212.45,1290.43 211.36,1288.14"/>
    </edge>
    <edge id=":199462993_0" function="internal">
        <lane id=":199462993_0_0" index="0" disallow="tram rail_urban rail rail_electric rail_fast ship container cable_car subway aircraft wheelchair scooter drone" speed="11.37" length="10.11" shape="203.48,1271.35 206.08,1270.56 207.98,1270.06 209.55,1269.15 211.14,1267.14"/>
        <lane id=":199462993_0_1" index="1" disallow="tram rail_urban rail rail_electric rail_fast ship container cable_car subway aircraft wheelchair scooter drone" speed="12.59" length="10.11" shape="204.60,1274.34 207.78,1273.33 210.06,1272.59 211.93,1271.35 213.86,1268.81"/>
    </edge>
    <edge id=":199462993_2" function="internal">
        <lane id=":199462993_2_0" index="0" disallow="tram rail_urban rail rail_electric rail_fast ship container cable_car subway aircraft wheelchair scooter drone" speed="13.74" length="10.31" shape="208.23,1277.24 208.22,1274.07 208.59,1271.90 209.50,1269.87 211.14,1267.14"/>
        <lane id=":199462993_2_1" index="1" disallow="tram rail_urban rail rail_electric rail_fast ship container cable_car subway aircraft wheelchair scooter drone" speed="13.14" length="10.31" shape="211.46,1278.09 211.42,1275.20 211.66,1273.19 212.40,1271.31 213.86,1268.81"/>
    </edge>
    <edge id=":199463005_0" function="internal">
        <lane id=":199463005_0_0" index="0" disallow="pedestrian bicycle tram rail_urban rail rail_electric rail_fast ship container cable_car subway aircraft wheelchair scooter drone" speed="9.56" length="6.01" shape="221.02,1259.05 222.50,1258.15 223.32,1257.26 223.90,1256.12 224.65,1254.49"/>
    </edge>
    <edge id=":199463005_1" function="internal">
        <lane id=":199463005_1_0" index="0" disallow="tram rail_urban rail rail_electric rail_fast ship container cable_car subway aircraft wheelchair scooter drone" speed="11.05" length="5.96" shape="221.02,1259.05 222.73,1258.26 223.99,1257.90 225.31,1257.87 227.20,1258.03"/>
        <lane id=":199463005_1_1" index="1" disallow="tram rail_urban rail rail_electric rail_fast ship container cable_car subway aircraft wheelchair scooter drone" speed="10.28" length="5.96" shape="222.46,1261.91 223.93,1261.27 225.03,1261.05 226.18,1261.12 227.81,1261.30"/>
    </edge>
    <edge id=":199463015_0" function="internal">
        <lane id=":199463015_0_0" index="0" disallow="bicycle tram rail_urban rail rail_electric rail_fast ship container cable_car subway aircraft wheelchair scooter drone" speed="7.74" length="7.11" shape="236.66,1255.92 236.74,1257.83 237.20,1259.51 238.06,1260.98 239.31,1262.22"/>
    </edge>
    <edge id=":199463015_1" function="internal">
        <lane id=":199463015_1_0" index="0" disallow="tram rail_urban rail rail_electric rail_fast ship container cable_car subway aircraft wheelchair scooter drone" speed="13.89" length="7.43" shape="232.40,1258.64 234.58,1259.46 236.06,1260.07 237.45,1260.85 239.31,1262.22"/>
        <lane id=":199463015_1_1" index="1" disallow="tram rail_urban rail rail_electric rail_fast ship container cable_car subway aircraft wheelchair scooter drone" speed="11.35" length="7.43" shape="231.23,1261.62 233.25,1261.94 234.55,1262.51 235.72,1263.41 237.33,1264.74"/>
    </edge>
    <edge id=":199463021_0" function="internal">
        <lane id=":199463021_0_0" index="0" allow="delivery bicycle" speed="5.11" length="4.93" shape="243.03,1266.08 243.94,1267.06 244.96,1267.53 246.08,1267.50 247.31,1266.97"/>
    </edge>
    <edge id=":199463021_1" function="internal">
        <lane id=":199463021_1_0" index="0" disallow="tram rail_urban rail rail_electric rail_fast ship container cable_car subway aircraft wheelchair scooter drone" speed="13.89" length="5.44" shape="243.03,1266.08 244.01,1267.49 244.64,1268.50 245.16,1269.57 245.80,1271.17"/>
        <lane id=":199463021_1_1" index="1" disallow="tram rail_urban rail rail_electric rail_fast ship container cable_car subway aircraft wheelchair scooter drone" speed="13.89" length="5.44" shape="240.41,1267.92 241.26,1269.14 241.81,1270.02 242.26,1270.94 242.82,1272.33"/>
    </edge>
    <edge id=":199463030_0" function="internal">
        <lane id=":199463030_0_0" index="0" disallow="tram rail_urban rail rail_electric rail_fast ship container cable_car subway aircraft wheelchair scooter drone" speed="7.52" length="7.01" shape="241.20,1290.76 240.19,1292.09 239.60,1293.62 239.43,1295.36 239.68,1297.29"/>
    </edge>
    <edge id=":199463030_1" function="internal">
        <lane id=":199463030_1_0" index="0" disallow="tram rail_urban rail rail_electric rail_fast ship container cable_car subway aircraft wheelchair scooter drone" speed="13.21" length="6.48" shape="241.20,1290.76 239.73,1292.34 238.68,1293.43 237.45,1294.24 235.48,1294.98"/>
        <lane id=":199463030_1_1" index="1" disallow="tram rail_urban rail rail_electric rail_fast ship container cable_car subway aircraft wheelchair scooter drone" speed="11.76" length="6.48" shape="238.92,1288.50 237.78,1289.77 236.98,1290.66 236.04,1291.34 234.50,1291.93"/>
    </edge>
    <edge id=":199463037_0" function="internal">
        <lane id=":199463037_0_0" index="0" disallow="tram rail_urban rail rail_electric rail_fast ship container cable_car subway aircraft wheelchair scooter drone" speed="8.63" length="7.34" shape="211.31,1288.05 210.26,1286.67 208.91,1285.56 207.27,1284.73 205.32,1284.17"/>
    </edge>
    <edge id=":199463037_1" function="internal">
        <lane id=":199463037_1_0" index="0" disallow="tram rail_urban rail rail_electric rail_fast ship container cable_car subway aircraft wheelchair scooter drone" speed="13.73" length="7.39" shape="211.31,1288.05 210.01,1286.03 209.12,1284.60 208.57,1283.07 208.34,1280.75"/>
        <lane id=":199463037_1_1" index="1" disallow="tram rail_urban rail rail_electric rail_fast ship container cable_car subway aircraft wheelchair scooter drone" speed="12.63" length="7.39" shape="213.75,1285.90 212.71,1284.20 212.04,1282.97 211.66,1281.65 211.51,1279.69"/>
    </edge>
    <edge id=":199463042_0" function="internal">
        <lane id=":199463042_0_0" index="0" disallow="tram rail_urban rail rail_electric rail_fast ship container cable_car subway aircraft wheelchair scooter drone" speed="8.28" length="7.01" shape="247.73,1288.43 245.85,1288.46 244.15,1288.84 242.64,1289.57 241.31,1290.64"/>
    </edge>
    <edge id=":199463042_1" function="internal">
        <lane id=":199463042_1_0" index="0" disallow="tram rail_urban rail rail_electric rail_fast ship container cable_car subway aircraft wheelchair scooter drone" speed="13.89" length="7.15" shape="245.47,1284.32 244.44,1286.34 243.72,1287.72 242.83,1288.99 241.31,1290.64"/>
        <lane id=":199463042_1_1" index="1" disallow="tram rail_urban rail rail_electric rail_fast ship container cable_car subway aircraft wheelchair scooter drone" speed="13.89" length="7.15" shape="242.65,1282.81 241.75,1284.59 241.13,1285.81 240.37,1286.94 239.04,1288.39"/>
    </edge>
    <edge id=":199463057_0" function="internal">
        <lane id=":199463057_0_0" index="0" disallow="pedestrian bicycle tram rail_urban rail rail_electric rail_fast ship container cable_car subway aircraft wheelchair scooter drone" speed="22.22" length="13.98" shape="227.36,1239.20 229.36,1236.21 231.27,1233.39 233.10,1230.53 234.86,1227.40"/>
    </edge>
    <edge id=":199463057_1" function="internal">
        <lane id=":199463057_1_0" index="0" disallow="pedestrian bicycle tram rail_urban rail rail_electric rail_fast ship container cable_car subway aircraft wheelchair scooter drone" speed="22.22" length="13.98" shape="230.63,1240.70 231.56,1237.22 232.41,1233.92 233.42,1230.68 234.86,1227.40"/>
    </edge>
    <edge id=":201191812_0" function="internal">
        <lane id=":201191812_0_0" index="0" disallow="tram rail_urban rail rail_electric rail_fast ship container cable_car subway aircraft wheelchair scooter drone" speed="13.89" length="5.83" shape="197.00,1272.96 198.60,1272.79 199.70,1272.63 200.76,1272.34 202.27,1271.80"/>
        <lane id=":201191812_0_1" index="1" disallow="tram rail_urban rail rail_electric rail_fast ship container cable_car subway aircraft wheelchair scooter drone" speed="13.89" length="5.83" shape="197.34,1276.14 199.18,1275.95 200.43,1275.75 201.66,1275.42 203.40,1274.79"/>
    </edge>
    <edge id=":201191817_0" function="internal">
        <lane id=":201191817_0_0" index="0" disallow="tram rail_urban rail rail_electric rail_fast ship container cable_car subway aircraft wheelchair scooter drone" speed="13.89" length="5.18" shape="203.05,1283.71 197.95,1282.81"/>
    </edge>
    <edge id=":201252190_0" function="internal">
        <lane id=":201252190_0_0" index="0" allow="bicycle" speed="2.89" length="2.92" width="2.00" shape="495.73,0.52 495.76,-0.38 496.06,-0.85 496.62,-0.90 497.43,-0.52"/>
    </edge>
    <edge id=":2137523993_0" function="internal">
        <lane id=":2137523993_0_0" index="0" allow="bicycle" speed="2.89" length="1.21" width="2.00" shape="199.60,1265.00 198.70,1264.93 198.45,1264.75"/>
    </edge>
    <edge id=":2137523993_2" function="internal">
        <lane id=":2137523993_2_0" index="0" allow="bicycle" speed="2.89" length="1.71" width="2.00" shape="198.45,1264.75 198.24,1264.61 198.21,1264.05 198.62,1263.25"/>
    </edge>
    <edge id=":2137523993_1" function="internal">
        <lane id=":2137523993_1_0" index="0" allow="bicycle" speed="5.56" length="6.21" width="2.00" shape="192.98,1265.63 194.77,1265.35 195.94,1264.89 197.04,1264.21 198.62,1263.25"/>
    </edge>
    <edge id=":216341374_0" function="internal">
        <lane id=":216341374_0_0" index="0" disallow="tram rail_urban rail rail_electric rail_fast ship container cable_car subway aircraft wheelchair scooter drone" speed="13.89" length="13.77" shape="247.77,1311.27 244.61,1309.72 241.93,1307.77 239.40,1305.57 236.67,1303.25"/>
    </edge>
    <edge id=":216341374_1" function="internal">
        <lane id=":216341374_1_0" index="0" disallow="tram rail_urban rail rail_electric rail_fast ship container cable_car subway aircraft wheelchair scooter drone" speed="9.58" length="11.64" shape="240.48,1300.87 241.40,1303.08 243.11,1305.05 245.60,1306.78 248.89,1308.27"/>
    </edge>
    <edge id=":216354097_0" function="internal">
        <lane id=":216354097_0_0" index="0" disallow="tram rail_urban rail rail_electric rail_fast ship container cable_car subway aircraft wheelchair scooter drone" speed="3.73" length="4.61" shape="282.10,1289.68 283.06,1290.73 283.25,1291.59 282.68,1292.26 281.34,1292.74"/>
    </edge>
    <edge id=":216354819_0" function="internal">
        <lane id=":216354819_0_0" index="0" disallow="tram rail_urban rail rail_electric rail_fast ship container cable_car subway aircraft wheelchair scooter drone" speed="3.65" length="4.67" shape="267.16,1315.07 268.01,1316.24 268.11,1317.13 267.45,1317.74 266.05,1318.07"/>
    </edge>
    <edge id=":216360346_0" function="internal">
        <lane id=":216360346_0_0" index="0" disallow="tram rail_urban rail rail_electric rail_fast ship container cable_car subway aircraft wheelchair scooter drone" speed="3.65" length="4.67" shape="114.25,1387.77 112.82,1387.96 111.99,1387.62 111.76,1386.75 112.14,1385.36"/>
    </edge>
    <edge id=":216400650_0" function="internal">
        <lane id=":216400650_0_0" index="0" disallow="tram rail_urban rail rail_electric rail_fast ship container cable_car subway aircraft wheelchair scooter drone" speed="9.99" length="6.23" shape="246.16,1272.08 246.94,1273.70 247.78,1274.63 248.89,1275.34 250.48,1276.30"/>
    </edge>
    <edge id=":216400650_1" function="internal">
        <lane id=":216400650_1_0" index="0" disallow="tram rail_urban rail rail_electric rail_fast ship container cable_car subway aircraft wheelchair scooter drone" speed="11.29" length="6.20" shape="246.16,1272.08 246.83,1273.91 247.12,1275.23 247.08,1276.59 246.76,1278.50"/>
        <lane id=":216400650_1_1" index="1" disallow="tram rail_urban rail rail_electric rail_fast ship container cable_car subway aircraft wheelchair scooter drone" speed="10.60" length="6.20" shape="243.17,1273.24 243.72,1274.85 243.88,1276.01 243.76,1277.21 243.43,1278.90"/>
    </edge>
    <edge id=":2345331015_0" function="internal">
        <lane id=":2345331015_0_0" index="0" disallow="tram rail_urban rail rail_electric rail_fast ship container cable_car subway aircraft wheelchair scooter drone" speed="11.11" length="6.36" shape="214.17,1298.50 213.16,1300.10 212.53,1301.26 211.80,1302.32 210.48,1303.63"/>
    </edge>
    <edge id=":2345331015_1" function="internal">
        <lane id=":2345331015_1_0" index="0" allow="pedestrian delivery bicycle" speed="6.39" length="1.45" shape="214.17,1298.50 213.17,1299.21 212.94,1299.22"/>
    </edge>
    <edge id=":2345331015_4" function="internal">
        <lane id=":2345331015_4_0" index="0" allow="pedestrian delivery bicycle" speed="6.39" length="6.38" shape="212.94,1299.22 211.63,1299.27 209.54,1298.70 206.90,1297.50"/>
    </edge>
    <edge id=":2345331015_2" function="internal">
        <lane id=":2345331015_2_0" index="0" allow="pedestrian delivery bicycle" speed="4.72" length="5.46" shape="207.83,1301.70 208.77,1300.56 208.93,1299.48 208.30,1298.46 206.90,1297.50"/>
    </edge>
    <edge id=":2345331015_3" function="internal">
        <lane id=":2345331015_3_0" index="0" disallow="tram rail_urban rail rail_electric rail_fast ship container cable_car subway aircraft wheelchair scooter drone" speed="11.11" length="6.29" shape="207.83,1301.70 209.15,1300.40 209.90,1299.37 210.54,1298.25 211.54,1296.67"/>
    </edge>
    <edge id=":2415736019_0" function="internal">
        <lane id=":2415736019_0_0" index="0" allow="bicycle" speed="5.56" length="6.08" shape="286.35,1274.44 285.44,1275.32 284.14,1276.70 282.82,1277.93 281.81,1278.39"/>
    </edge>
    <edge id=":2415736019_1" function="internal">
        <lane id=":2415736019_1_0" index="0" allow="bicycle" speed="3.65" length="4.67" shape="282.43,1275.25 283.45,1276.27 283.69,1277.13 283.15,1277.84 281.81,1278.39"/>
    </edge>
    <edge id=":2697814794_0" function="internal">
        <lane id=":2697814794_0_0" index="0" disallow="pedestrian bicycle tram rail_urban rail rail_electric rail_fast ship container cable_car subway aircraft wheelchair scooter drone" speed="22.22" length="5.28" shape="228.23,1247.28 228.92,1245.87 229.35,1244.89 229.70,1243.87 230.15,1242.37"/>
    </edge>
    <edge id=":2697814798_0" function="internal">
        <lane id=":2697814798_0_0" index="0" disallow="pedestrian bicycle tram rail_urban rail rail_electric rail_fast ship container cable_car subway aircraft wheelchair scooter drone" speed="13.89" length="4.72" shape="237.83,1244.80 237.49,1246.16 237.28,1247.09 237.16,1248.05 237.06,1249.44"/>
    </edge>
    <edge id=":3168669501_0" function="internal">
        <lane id=":3168669501_0_0" index="0" disallow="tram rail_urban rail rail_electric rail_fast ship container cable_car subway aircraft wheelchair scooter drone" speed="13.89" length="4.63" shape="255.15,1279.35 256.31,1280.09 257.13,1280.55 258.00,1280.93 259.29,1281.40"/>
    </edge>
    <edge id=":3168669502_0" function="internal">
        <lane id=":3168669502_0_0" index="0" disallow="tram rail_urban rail rail_electric rail_fast ship container cable_car subway aircraft wheelchair scooter drone" speed="13.89" length="4.99" shape="256.25,1289.25 251.28,1288.69"/>
    </edge>
    <edge id=":3678945741_0" function="internal">
        <lane id=":3678945741_0_0" index="0" disallow="tram rail_urban rail rail_electric rail_fast ship container cable_car subway aircraft wheelchair scooter drone" speed="7.88" length="11.77" shape="179.68,1280.55 176.77,1279.32 174.04,1279.19 171.49,1280.16 169.10,1282.22"/>
    </edge>
    <edge id=":3678945741_1" function="internal">
        <lane id=":3678945741_1_0" index="0" disallow="tram rail_urban rail rail_electric rail_fast ship container cable_car subway aircraft wheelchair scooter drone" speed="13.89" length="12.71" shape="179.68,1280.55 176.65,1279.05 173.85,1278.06 171.04,1277.09 167.96,1275.67"/>
    </edge>
    <edge id=":3678945741_2" function="internal">
        <lane id=":3678945741_2_0" index="0" disallow="tram rail_urban rail rail_electric rail_fast ship container cable_car subway aircraft wheelchair scooter drone" speed="13.89" length="14.79" shape="171.05,1270.06 174.58,1272.20 177.11,1273.68 179.80,1274.42 183.77,1274.34"/>
        <lane id=":3678945741_2_1" index="1" disallow="tram rail_urban rail rail_electric rail_fast ship container cable_car subway aircraft wheelchair scooter drone" speed="13.89" length="14.79" shape="169.51,1272.87 173.55,1275.27 176.47,1276.88 179.55,1277.65 184.11,1277.52"/>
    </edge>
    <edge id=":3678945742_0" function="internal">
        <lane id=":3678945742_0_0" index="0" allow="pedestrian delivery bicycle" speed="9.72" length="2.95" shape="179.88,1283.60 179.85,1280.65"/>
    </edge>
    <edge id=":3678945742_1" function="internal">
        <lane id=":3678945742_1_0" index="0" disallow="tram rail_urban rail rail_electric rail_fast ship container cable_car subway aircraft wheelchair scooter drone" speed="11.37" length="2.68" shape="182.51,1280.39 179.85,1280.65"/>
    </edge>
    <edge id=":4983052633_0" function="internal">
        <lane id=":4983052633_0_0" index="0" disallow="pedestrian bicycle tram rail_urban rail rail_electric rail_fast ship container cable_car subway aircraft wheelchair scooter drone" speed="22.22" length="5.92" shape="222.92,1245.55 226.36,1240.73"/>
    </edge>
    <edge id=":5188468487_0" function="internal">
        <lane id=":5188468487_0_0" index="0" disallow="pedestrian bicycle tram rail_urban rail rail_electric rail_fast ship container cable_car subway aircraft wheelchair scooter drone" speed="18.60" length="5.58" shape="195.54,1268.87 197.18,1268.65 198.29,1268.42 199.35,1268.01 200.83,1267.28"/>
    </edge>
    <edge id=":8355472623_0" function="internal">
        <lane id=":8355472623_0_0" index="0" allow="pedestrian delivery bicycle" speed="5.56" length="5.01" shape="199.79,1293.77 195.33,1291.47"/>
    </edge>
    <edge id=":8355472625_0" function="internal">
        <lane id=":8355472625_0_0" index="0" allow="bicycle" speed="5.56" length="5.05" width="2.00" shape="221.04,1238.98 218.78,1243.49"/>
    </edge>
    <edge id=":8355472625_1" function="internal">
        <lane id=":8355472625_1_0" index="0" allow="bicycle" speed="2.89" length="2.92" width="2.00" shape="221.04,1238.98 220.25,1239.42 219.69,1239.41 219.36,1238.96 219.27,1238.06"/>
    </edge>
    <edge id=":8355472625_2" function="internal">
        <lane id=":8355472625_2_0" index="0" allow="bicycle" speed="5.56" length="5.11" width="2.00" shape="216.98,1242.63 219.27,1238.06"/>
    </edge>
    <edge id=":8355472625_3" function="internal">
        <lane id=":8355472625_3_0" index="0" allow="bicycle" speed="2.89" length="2.92" width="2.00" shape="216.98,1242.63 217.75,1242.17 218.31,1242.16 218.65,1242.60 218.78,1243.49"/>
    </edge>
    <edge id=":8688297644_0" function="internal">
        <lane id=":8688297644_0_0" index="0" disallow="tram rail_urban rail rail_electric rail_fast ship container cable_car subway aircraft wheelchair scooter drone" speed="13.89" length="0.89" shape="215.88,1261.85 216.17,1261.59 216.38,1261.42 216.61,1261.28 216.96,1261.10"/>
        <lane id=":8688297644_0_1" index="1" disallow="tram rail_urban rail rail_electric rail_fast ship container cable_car subway aircraft wheelchair scooter drone" speed="13.89" length="0.89" shape="218.04,1264.21 218.14,1264.12 218.21,1264.06 218.29,1264.02 218.41,1263.96"/>
    </edge>

    <edge id="-19356470" from="216361651" to="3678945741" priority="11" type="highway.secondary">
        <lane id="-19356470_0" index="0" disallow="tram rail_urban rail rail_electric rail_fast ship container cable_car subway aircraft wheelchair scooter drone" speed="13.89" length="18.57" shape="154.79,1261.10 171.05,1270.06"/>
        <lane id="-19356470_1" index="1" disallow="tram rail_urban rail rail_electric rail_fast ship container cable_car subway aircraft wheelchair scooter drone" speed="13.89" length="18.57" shape="153.25,1263.90 169.51,1272.87"/>
        <param key="ref" value="D 181"/>
    </edge>
    <edge id="-20355654" from="2345331015" to="216360346" priority="3" type="highway.residential" shape="211.31,1299.80 209.35,1302.49 113.19,1386.57">
        <lane id="-20355654_0" index="0" disallow="tram rail_urban rail rail_electric rail_fast ship container cable_car subway aircraft wheelchair scooter drone" speed="8.33" length="127.83" shape="210.48,1303.63 114.25,1387.77"/>
    </edge>
    <edge id="-233217116" from="2415736019" to="1956440595" priority="1" type="highway.service" shape="282.72,1276.94 272.19,1274.87 264.22,1271.62 256.79,1266.01 254.24,1262.38">
        <lane id="-233217116_0" index="0" allow="bicycle" speed="5.56" length="30.63" shape="281.81,1278.39 271.73,1276.41 263.43,1273.02 255.63,1267.14 254.70,1265.81"/>
    </edge>
    <edge id="-352897870" from="216341374" to="216354819" priority="3" type="highway.residential" shape="241.89,1307.38 255.26,1312.34 266.61,1316.57">
        <lane id="-352897870_0" index="0" disallow="tram rail_urban rail rail_electric rail_fast ship container cable_car subway aircraft wheelchair scooter drone" speed="13.89" length="19.50" shape="248.89,1308.27 255.82,1310.84 267.16,1315.07"/>
    </edge>
    <edge id="-363761155" from="199462980" to="2345331015" priority="3" type="highway.residential" shape="216.98,1291.67 214.53,1295.18 211.31,1299.80">
        <lane id="-363761155_0" index="0" disallow="tram rail_urban rail rail_electric rail_fast ship container cable_car subway aircraft wheelchair scooter drone" speed="13.89" length="0.63" shape="214.52,1297.98 214.17,1298.50"/>
    </edge>
    <edge id="-535225804#0" from="8355472625" to="201252190" priority="1" type="highway.cycleway" shape="218.88,1240.98 250.19,1180.72 258.18,1157.45 258.75,1140.40 255.47,1123.70 245.69,1092.38 239.62,1036.50 236.46,974.81 238.58,924.56 252.06,822.22 266.79,759.10 348.89,504.57 370.41,437.21 435.26,239.89 475.26,111.14 501.77,8.44 496.58,0.00">
        <lane id="-535225804#0_0" index="0" allow="bicycle" speed="5.56" length="1288.52" width="2.00" shape="219.27,1238.06 249.27,1180.33 257.19,1157.27 257.75,1140.48 254.50,1123.95 244.71,1092.58 238.62,1036.58 235.46,974.81 237.58,924.47 251.08,822.04 265.83,758.83 347.94,504.26 369.46,436.90 434.30,239.58 474.30,110.86 500.69,8.60 495.73,0.52"/>
    </edge>
    <edge id="-535225804#1" from="2137523993" to="8355472625" priority="1" type="highway.cycleway" shape="197.14,1265.23 203.31,1261.76 209.48,1254.24 217.67,1243.50 218.88,1240.98">
        <lane id="-535225804#1_0" index="0" allow="bicycle" speed="5.56" length="27.92" width="2.00" shape="198.62,1263.25 202.66,1260.98 208.70,1253.62 216.81,1242.98 216.98,1242.63"/>
    </edge>
    <edge id="1012518252" from="199463005" to="199463015" priority="11" type="highway.secondary" spreadType="center" shape="221.65,1260.53 226.59,1259.58 231.61,1260.05 236.30,1261.90">
        <lane id="1012518252_0" index="0" disallow="tram rail_urban rail rail_electric rail_fast ship container cable_car subway aircraft wheelchair scooter drone" speed="13.89" length="4.35" shape="227.20,1258.03 231.99,1258.48 232.40,1258.64"/>
        <lane id="1012518252_1" index="1" disallow="tram rail_urban rail rail_electric rail_fast ship container cable_car subway aircraft wheelchair scooter drone" speed="13.89" length="4.35" shape="227.81,1261.30 231.23,1261.62"/>
    </edge>
    <edge id="1012518253" from="199463042" to="199463030" priority="11" type="highway.secondary" spreadType="center">
        <lane id="1012518253_0" index="0" disallow="tram rail_urban rail rail_electric rail_fast ship container cable_car subway aircraft wheelchair scooter drone" speed="13.89" length="0.16" shape="241.31,1290.64 241.20,1290.76"/>
        <lane id="1012518253_1" index="1" disallow="tram rail_urban rail rail_electric rail_fast ship container cable_car subway aircraft wheelchair scooter drone" speed="13.89" length="0.16" shape="239.04,1288.39 238.92,1288.50"/>
    </edge>
    <edge id="1012518254#0" from="199462978" to="199462980" priority="11" type="highway.secondary" spreadType="center" shape="226.28,1295.03 221.39,1294.01 216.98,1291.67">
        <lane id="1012518254#0_0" index="0" disallow="tram rail_urban rail rail_electric rail_fast ship container cable_car subway aircraft wheelchair scooter drone" speed="13.89" length="2.30" shape="224.82,1296.36 222.13,1295.80"/>