<?xml version="1.0" encoding="UTF-8"?>

<!-- generated on 2024-09-03 01:37:04 by Eclipse SUMO netconvert Version 1.20.0
<configuration xmlns:xsi="http://www.w3.org/2001/XMLSchema-instance" xsi:noNamespaceSchemaLocation="http://sumo.dlr.de/xsd/netconvertConfiguration.xsd">

    <input>
        <osm-files value="train_files/roundabout/easy/osm_files/map(98).osm"/>
    </input>

    <output>
        <output-file value="train_files/roundabout/easy/outputs/map(98)_dict/map(98)/map(98).net.xml"/>
    </output>

    <projection>
        <proj.utm value="true"/>
    </projection>

    <building_defaults>
        <default.junctions.keep-clear value="false"/>
    </building_defaults>

</configuration>
-->

<net version="1.20" junctionCornerDetail="5" limitTurnSpeed="5.50" xmlns:xsi="http://www.w3.org/2001/XMLSchema-instance" xsi:noNamespaceSchemaLocation="http://sumo.dlr.de/xsd/net_file.xsd">

    <location netOffset="-687308.56,-5950672.37" convBoundary="0.00,0.00,503.73,1034.66" origBoundary="23.835893,53.671163,23.843800,53.680279" projParameter="+proj=utm +zone=34 +ellps=WGS84 +datum=WGS84 +units=m +no_defs"/>

    <type id="highway.footway" priority="1" numLanes="1" speed="2.78" allow="pedestrian" oneway="1" width="2.00"/>
    <type id="highway.secondary" priority="11" numLanes="1" speed="27.78" disallow="tram rail_urban rail rail_electric rail_fast ship container cable_car subway aircraft wheelchair scooter drone" oneway="0"/>
    <type id="highway.secondary_link" priority="6" numLanes="1" speed="22.22" disallow="tram rail_urban rail rail_electric rail_fast ship container cable_car subway aircraft wheelchair scooter drone" oneway="0"/>
    <type id="highway.service" priority="1" numLanes="1" speed="5.56" allow="pedestrian delivery bicycle" oneway="0"/>
    <type id="highway.steps" priority="1" numLanes="1" speed="1.39" allow="pedestrian" oneway="1" width="2.00"/>
    <type id="highway.tertiary" priority="10" numLanes="1" speed="22.22" disallow="tram rail_urban rail rail_electric rail_fast ship container cable_car subway aircraft wheelchair scooter drone" oneway="0"/>
    <type id="railway.rail" priority="20" numLanes="1" speed="44.44" allow="rail" oneway="1"/>

    <edge id=":10707618810_0" function="internal">
        <lane id=":10707618810_0_0" index="0" allow="pedestrian delivery bicycle" speed="5.56" length="3.13" shape="189.45,654.23 188.86,651.15"/>
    </edge>
    <edge id=":10707618810_1" function="internal">
        <lane id=":10707618810_1_0" index="0" allow="pedestrian delivery bicycle" speed="3.65" length="1.44" shape="189.45,654.23 190.01,652.90"/>
    </edge>
    <edge id=":10707618810_4" function="internal">
        <lane id=":10707618810_4_0" index="0" allow="pedestrian delivery bicycle" speed="3.65" length="3.23" shape="190.01,652.90 190.72,652.35 191.58,652.59 192.59,653.62"/>
    </edge>
    <edge id=":10707618810_2" function="internal">
        <lane id=":10707618810_2_0" index="0" allow="pedestrian delivery bicycle" speed="5.56" length="3.13" shape="192.00,650.55 192.59,653.62"/>
    </edge>
    <edge id=":10707618810_3" function="internal">
        <lane id=":10707618810_3_0" index="0" allow="pedestrian delivery bicycle" speed="3.65" length="1.44" shape="192.00,650.55 191.44,651.88"/>
    </edge>
    <edge id=":10707618810_5" function="internal">
        <lane id=":10707618810_5_0" index="0" allow="pedestrian delivery bicycle" speed="3.65" length="3.23" shape="191.44,651.88 190.73,652.42 189.87,652.18 188.86,651.15"/>
    </edge>
    <edge id=":1759697987_0" function="internal">
        <lane id=":1759697987_0_0" index="0" disallow="tram rail_urban rail rail_electric rail_fast ship container cable_car subway aircraft wheelchair scooter drone" speed="16.67" length="0.15" shape="319.27,695.84 319.24,695.76"/>
        <lane id=":1759697987_0_1" index="1" disallow="tram rail_urban rail rail_electric rail_fast ship container cable_car subway aircraft wheelchair scooter drone" speed="16.67" length="0.15" shape="322.24,694.65 322.16,694.44"/>
    </edge>
    <edge id=":1759697987_2" function="internal">
        <lane id=":1759697987_2_0" index="0" disallow="tram rail_urban rail rail_electric rail_fast ship container cable_car subway aircraft wheelchair scooter drone" speed="16.67" length="0.38" shape="325.07,693.13 325.22,693.47"/>
    </edge>
    <edge id=":320666772_0" function="internal">
        <lane id=":320666772_0_0" index="0" disallow="tram rail_urban rail rail_electric rail_fast ship container cable_car subway aircraft wheelchair scooter drone" speed="16.67" length="8.68" shape="177.59,644.39 180.10,644.30 181.90,644.94 183.65,645.44 186.04,644.98"/>
    </edge>
    <edge id=":320666772_1" function="internal">
        <lane id=":320666772_1_0" index="0" disallow="tram rail_urban rail rail_electric rail_fast ship container cable_car subway aircraft wheelchair scooter drone" speed="16.67" length="7.21" shape="177.59,644.39 184.77,642.84"/>
        <lane id=":320666772_1_1" index="1" disallow="tram rail_urban rail rail_electric rail_fast ship container cable_car subway aircraft wheelchair scooter drone" speed="16.67" length="7.21" shape="178.32,647.51 185.37,645.99"/>
        <lane id=":320666772_1_2" index="2" disallow="tram rail_urban rail rail_electric rail_fast ship container cable_car subway aircraft wheelchair scooter drone" speed="16.67" length="7.21" shape="179.05,650.62 185.97,649.13"/>
    </edge>
    <edge id=":320666773_0" function="internal">
        <lane id=":320666773_0_0" index="0" disallow="tram rail_urban rail rail_electric rail_fast ship container cable_car subway aircraft wheelchair scooter drone" speed="16.67" length="0.43" shape="281.12,638.02 281.41,637.99"/>
        <lane id=":320666773_0_1" index="1" disallow="tram rail_urban rail rail_electric rail_fast ship container cable_car subway aircraft wheelchair scooter drone" speed="16.67" length="0.43" shape="281.35,641.21 281.79,641.17"/>
        <lane id=":320666773_0_2" index="2" disallow="tram rail_urban rail rail_electric rail_fast ship container cable_car subway aircraft wheelchair scooter drone" speed="16.67" length="0.43" shape="281.59,644.40 282.17,644.35"/>
    </edge>
    <edge id=":320666774_0" function="internal">
        <lane id=":320666774_0_0" index="0" disallow="tram rail_urban rail rail_electric rail_fast ship container cable_car subway aircraft wheelchair scooter drone" speed="16.01" length="18.65" shape="234.68,628.38 238.33,632.18 241.20,634.52 244.56,635.94 249.67,636.99"/>
        <lane id=":320666774_0_1" index="1" disallow="tram rail_urban rail rail_electric rail_fast ship container cable_car subway aircraft wheelchair scooter drone" speed="16.67" length="18.65" shape="232.68,630.92 236.67,635.04 239.85,637.53 243.55,639.02 249.15,640.15"/>
    </edge>
    <edge id=":320666774_2" function="internal">
        <lane id=":320666774_2_0" index="0" disallow="tram rail_urban rail rail_electric rail_fast ship container cable_car subway aircraft wheelchair scooter drone" speed="16.67" length="18.58" shape="230.72,636.69 236.35,636.24 240.23,636.01 244.09,636.20 249.67,636.99"/>
        <lane id=":320666774_2_1" index="1" disallow="tram rail_urban rail rail_electric rail_fast ship container cable_car subway aircraft wheelchair scooter drone" speed="16.67" length="18.58" shape="230.65,639.90 236.15,639.46 239.94,639.22 243.70,639.38 249.15,640.15"/>
        <lane id=":320666774_2_2" index="2" disallow="tram rail_urban rail rail_electric rail_fast ship container cable_car subway aircraft wheelchair scooter drone" speed="16.67" length="18.58" shape="230.58,643.11 235.94,642.67 239.64,642.42 243.31,642.57 248.63,643.30"/>
    </edge>
    <edge id=":320666841_0" function="internal">
        <lane id=":320666841_0_0" index="0" disallow="tram rail_urban rail rail_electric rail_fast ship container cable_car subway aircraft wheelchair scooter drone" speed="3.65" length="4.67" shape="331.77,709.95 331.47,711.36 330.87,712.03 329.98,711.95 328.79,711.14"/>
    </edge>
    <edge id=":320670923_0" function="internal">
        <lane id=":320670923_0_0" index="0" allow="rail" speed="13.89" length="37.66" shape="290.74,577.66 274.14,543.85"/>
    </edge>
    <edge id=":320670923_1" function="internal">
        <lane id=":320670923_1_0" index="0" allow="rail rail_electric rail_fast" speed="12.50" length="37.65" shape="293.66,576.05 289.80,569.86 283.70,560.06 277.70,550.20 274.14,543.85"/>
    </edge>
    <edge id=":320684113_0" function="internal">
        <lane id=":320684113_0_0" index="0" disallow="tram rail_urban rail rail_electric rail_fast ship container cable_car subway aircraft wheelchair scooter drone" speed="8.98" length="13.14" shape="268.96,590.87 266.81,587.63 264.37,585.43 261.65,584.28 258.63,584.17"/>
        <lane id=":320684113_0_1" index="1" disallow="tram rail_urban rail rail_electric rail_fast ship container cable_car subway aircraft wheelchair scooter drone" speed="9.24" length="13.98" shape="268.96,590.87 266.29,586.28 263.90,583.07 261.80,581.23 259.97,580.77"/>
    </edge>
    <edge id=":320684113_2" function="internal">
        <lane id=":320684113_2_0" index="0" disallow="tram rail_urban rail rail_electric rail_fast ship container cable_car subway aircraft wheelchair scooter drone" speed="22.22" length="14.89" shape="271.78,589.36 264.29,576.49"/>
    </edge>
    <edge id=":320684113_3" function="internal">
        <lane id=":320684113_3_0" index="0" disallow="tram rail_urban rail rail_electric rail_fast ship container cable_car subway aircraft wheelchair scooter drone" speed="22.22" length="14.98" shape="267.08,574.91 274.60,587.86"/>
    </edge>
    <edge id=":320684115_0" function="internal">
        <lane id=":320684115_0_0" index="0" disallow="tram rail_urban rail rail_electric rail_fast ship container cable_car subway aircraft wheelchair scooter drone" speed="16.67" length="7.49" shape="258.44,584.19 251.78,585.13"/>
        <lane id=":320684115_0_1" index="1" disallow="tram rail_urban rail rail_electric rail_fast ship container cable_car subway aircraft wheelchair scooter drone" speed="16.67" length="7.49" shape="259.44,580.84 251.26,581.97"/>
    </edge>
    <edge id=":320684115_2" function="internal">
        <lane id=":320684115_2_0" index="0" disallow="tram rail_urban rail rail_electric rail_fast ship container cable_car subway aircraft wheelchair scooter drone" speed="8.26" length="7.59" shape="256.63,576.95 255.38,578.96 254.07,580.47 252.70,581.48 251.26,581.97"/>
    </edge>
    <edge id=":320685502_0" function="internal">
        <lane id=":320685502_0_0" index="0" disallow="tram rail_urban rail rail_electric rail_fast ship container cable_car subway aircraft wheelchair scooter drone" speed="3.65" length="4.67" shape="162.18,412.76 161.40,411.55 161.35,410.66 162.03,410.08 163.45,409.83"/>
    </edge>
    <edge id=":320685827_0" function="internal">
        <lane id=":320685827_0_0" index="0" disallow="tram rail_urban rail rail_electric rail_fast ship container cable_car subway aircraft wheelchair scooter drone" speed="16.67" length="5.11" shape="207.97,630.72 210.83,626.49"/>
    </edge>
    <edge id=":320685840_0" function="internal">
        <lane id=":320685840_0_0" index="0" disallow="tram rail_urban rail rail_electric rail_fast ship container cable_car subway aircraft wheelchair scooter drone" speed="16.25" length="10.04" shape="246.67,553.36 246.70,550.36 246.83,548.24 246.53,546.24 245.32,543.62"/>
    </edge>
    <edge id=":320685840_1" function="internal">
        <lane id=":320685840_1_0" index="0" disallow="tram rail_urban rail rail_electric rail_fast ship container cable_car subway aircraft wheelchair scooter drone" speed="6.45" length="16.28" shape="246.67,553.36 246.79,547.53 247.90,545.14 250.00,546.18 253.10,550.67"/>
    </edge>
    <edge id=":320685840_2" function="internal">
        <lane id=":320685840_2_0" index="0" disallow="tram rail_urban rail rail_electric rail_fast ship container cable_car subway aircraft wheelchair scooter drone" speed="16.67" length="10.01" shape="250.33,552.28 245.32,543.62"/>
    </edge>
    <edge id=":320685840_3" function="internal">
        <lane id=":320685840_3_0" index="0" disallow="tram rail_urban rail rail_electric rail_fast ship container cable_car subway aircraft wheelchair scooter drone" speed="3.65" length="1.44" shape="250.33,552.28 250.42,550.84"/>
    </edge>
    <edge id=":320685840_6" function="internal">
        <lane id=":320685840_6_0" index="0" disallow="tram rail_urban rail rail_electric rail_fast ship container cable_car subway aircraft wheelchair scooter drone" speed="3.65" length="3.23" shape="250.42,550.84 250.91,550.09 251.81,550.04 253.10,550.67"/>
    </edge>
    <edge id=":320685840_4" function="internal">
        <lane id=":320685840_4_0" index="0" disallow="tram rail_urban rail rail_electric rail_fast ship container cable_car subway aircraft wheelchair scooter drone" speed="16.67" length="10.01" shape="248.09,542.01 253.10,550.67"/>
    </edge>
    <edge id=":320685840_5" function="internal">
        <lane id=":320685840_5_0" index="0" disallow="tram rail_urban rail rail_electric rail_fast ship container cable_car subway aircraft wheelchair scooter drone" speed="3.65" length="1.44" shape="248.09,542.01 248.00,543.45"/>
    </edge>
    <edge id=":320685840_7" function="internal">
        <lane id=":320685840_7_0" index="0" disallow="tram rail_urban rail rail_electric rail_fast ship container cable_car subway aircraft wheelchair scooter drone" speed="3.65" length="3.23" shape="248.00,543.45 247.50,544.20 246.61,544.26 245.32,543.62"/>
    </edge>
    <edge id=":391377329_0" function="internal">
        <lane id=":391377329_0_0" index="0" disallow="tram rail_urban rail rail_electric rail_fast ship container cable_car subway aircraft wheelchair scooter drone" speed="16.15" length="20.40" shape="234.16,577.90 237.47,574.65 241.13,570.31 244.23,565.66 245.86,561.47"/>
    </edge>
    <edge id=":391377329_1" function="internal">
        <lane id=":391377329_1_0" index="0" disallow="tram rail_urban rail rail_electric rail_fast ship container cable_car subway aircraft wheelchair scooter drone" speed="16.67" length="20.50" shape="234.16,577.90 237.03,575.09 240.39,571.97 244.88,569.12 251.15,567.12"/>
        <lane id=":391377329_1_1" index="1" disallow="tram rail_urban rail rail_electric rail_fast ship container cable_car subway aircraft wheelchair scooter drone" speed="16.67" length="19.57" shape="234.16,577.90 237.19,575.57 240.89,573.51 245.65,571.72 251.90,570.23"/>
    </edge>
    <edge id=":391377333_0" function="internal">
        <lane id=":391377333_0_0" index="0" disallow="tram rail_urban rail rail_electric rail_fast ship container cable_car subway aircraft wheelchair scooter drone" speed="22.22" length="17.60" shape="263.88,575.76 255.10,560.51"/>
    </edge>
    <edge id=":391377333_1" function="internal">
        <lane id=":391377333_1_0" index="0" disallow="tram rail_urban rail rail_electric rail_fast ship container cable_car subway aircraft wheelchair scooter drone" speed="22.22" length="17.63" shape="257.86,558.90 266.66,574.18"/>
    </edge>
    <edge id=":391377333_2" function="internal">
        <lane id=":391377333_2_0" index="0" disallow="tram rail_urban rail rail_electric rail_fast ship container cable_car subway aircraft wheelchair scooter drone" speed="11.55" length="17.74" shape="257.86,558.90 259.47,562.78 259.89,566.90 259.14,571.26 257.21,575.85"/>
    </edge>
    <edge id=":391377333_3" function="internal">
        <lane id=":391377333_3_0" index="0" disallow="tram rail_urban rail rail_electric rail_fast ship container cable_car subway aircraft wheelchair scooter drone" speed="3.65" length="4.67" shape="257.86,558.90 257.78,560.34 257.28,561.09 256.39,561.14 255.10,560.51"/>
    </edge>
    <edge id=":391377333_4" function="internal">
        <lane id=":391377333_4_0" index="0" disallow="tram rail_urban rail rail_electric rail_fast ship container cable_car subway aircraft wheelchair scooter drone" speed="5.92" length="9.19" shape="251.76,567.00 254.37,566.14 255.80,564.77 256.04,562.90 255.10,560.51"/>
    </edge>
    <edge id=":391377333_5" function="internal">
        <lane id=":391377333_5_0" index="0" disallow="tram rail_urban rail rail_electric rail_fast ship container cable_car subway aircraft wheelchair scooter drone" speed="10.22" length="17.78" shape="251.76,567.00 256.36,566.76 260.37,567.88 263.81,570.35 266.66,574.18"/>
    </edge>
    <edge id=":391377333_6" function="internal">
        <lane id=":391377333_6_0" index="0" disallow="tram rail_urban rail rail_electric rail_fast ship container cable_car subway aircraft wheelchair scooter drone" speed="5.98" length="11.33" shape="252.10,570.19 255.81,569.91 257.90,570.76 258.37,572.73 257.21,575.85"/>
    </edge>
    <edge id=":440100870_0" function="internal">
        <lane id=":440100870_0_0" index="0" disallow="tram rail_urban rail rail_electric rail_fast ship container cable_car subway aircraft wheelchair scooter drone" speed="16.67" length="6.20" shape="231.10,623.75 231.97,625.19 232.64,626.13 233.39,627.01 234.55,628.24"/>
        <lane id=":440100870_0_1" index="1" disallow="tram rail_urban rail rail_electric rail_fast ship container cable_car subway aircraft wheelchair scooter drone" speed="16.67" length="6.20" shape="228.35,625.38 229.39,627.08 230.18,628.20 231.08,629.23 232.45,630.68"/>
    </edge>
    <edge id=":440100888_0" function="internal">
        <lane id=":440100888_0_0" index="0" disallow="tram rail_urban rail rail_electric rail_fast ship container cable_car subway aircraft wheelchair scooter drone" speed="16.67" length="5.39" shape="214.76,638.02 220.38,637.40"/>
        <lane id=":440100888_0_1" index="1" disallow="tram rail_urban rail rail_electric rail_fast ship container cable_car subway aircraft wheelchair scooter drone" speed="16.67" length="5.39" shape="215.24,641.19 220.60,640.59"/>
        <lane id=":440100888_0_2" index="2" disallow="tram rail_urban rail rail_electric rail_fast ship container cable_car subway aircraft wheelchair scooter drone" speed="16.67" length="5.39" shape="215.72,644.35 220.82,643.79"/>
    </edge>
    <edge id=":495217805_0" function="internal">
        <lane id=":495217805_0_0" index="0" allow="rail rail_electric rail_fast" speed="8.33" length="0.10" shape="304.98,594.51 304.98,594.51"/>
    </edge>
    <edge id=":5130981344_0" function="internal">
        <lane id=":5130981344_0_0" index="0" allow="pedestrian delivery bicycle" speed="3.65" length="4.67" shape="183.53,729.17 182.96,730.49 182.24,731.03 181.38,730.78 180.38,729.75"/>
    </edge>
    <edge id=":6611893839_0" function="internal">
        <lane id=":6611893839_0_0" index="0" allow="pedestrian delivery bicycle" speed="6.67" length="9.55" shape="188.82,650.95 188.75,648.50 189.58,646.58 191.32,645.19 193.96,644.32"/>
        <lane id=":6611893839_0_1" index="1" allow="pedestrian delivery bicycle" speed="5.91" length="7.26" shape="188.82,650.95 189.02,649.88 190.04,648.94 191.89,648.13 194.56,647.47"/>
    </edge>
    <edge id=":6611893839_2" function="internal">
        <lane id=":6611893839_2_0" index="0" allow="pedestrian delivery bicycle" speed="3.65" length="4.67" shape="188.82,650.95 189.38,649.62 190.09,649.08 190.95,649.32 191.96,650.35"/>
    </edge>
    <edge id=":6611893839_3" function="internal">
        <lane id=":6611893839_3_0" index="0" disallow="tram rail_urban rail rail_electric rail_fast ship container cable_car subway aircraft wheelchair scooter drone" speed="16.67" length="8.55" shape="184.96,642.81 193.35,641.18"/>
        <lane id=":6611893839_3_1" index="1" disallow="tram rail_urban rail rail_electric rail_fast ship container cable_car subway aircraft wheelchair scooter drone" speed="16.67" length="8.55" shape="185.56,645.95 193.96,644.32"/>
        <lane id=":6611893839_3_2" index="2" disallow="tram rail_urban rail rail_electric rail_fast ship container cable_car subway aircraft wheelchair scooter drone" speed="16.67" length="8.55" shape="186.16,649.09 194.56,647.47"/>
    </edge>
    <edge id=":6611893839_6" function="internal">
        <lane id=":6611893839_6_0" index="0" allow="pedestrian delivery bicycle" speed="5.62" length="6.49" shape="186.16,649.09 188.54,648.78 190.29,648.89 191.44,649.41 191.96,650.35"/>
    </edge>

    <edge id="-29162923#0" from="320685840" to="320685502" priority="10" type="highway.tertiary" shape="246.09,541.75 175.76,420.25 170.03,414.42 162.82,411.29">
        <lane id="-29162923#0_0" index="0" disallow="tram rail_urban rail rail_electric rail_fast ship container cable_car subway aircraft wheelchair scooter drone" speed="16.67" length="156.62" shape="245.32,543.62 174.48,421.23 169.11,415.77 162.18,412.76"/>
    </edge>
    <edge id="-29162923#1" from="391377333" to="320685840" priority="10" type="highway.tertiary" shape="261.36,568.08 256.15,559.13 246.09,541.75">
        <lane id="-29162923#1_0" index="0" disallow="tram rail_urban rail rail_electric rail_fast ship container cable_car subway aircraft wheelchair scooter drone" speed="16.67" length="9.51" shape="255.10,560.51 254.76,559.93 250.33,552.28"/>
    </edge>
    <edge id="-37766220#0" from="1759697987" to="320684113" priority="11" type="highway.secondary" shape="323.67,693.91 312.03,668.18 288.14,616.67 275.75,593.41">
        <lane id="-37766220#0_0" index="0" disallow="tram rail_urban rail rail_electric rail_fast ship container cable_car subway aircraft wheelchair scooter drone" speed="16.67" length="116.47" shape="319.24,695.76 307.67,670.18 283.84,618.81 268.96,590.87"/>
        <lane id="-37766220#0_1" index="1" disallow="tram rail_urban rail rail_electric rail_fast ship container cable_car subway aircraft wheelchair scooter drone" speed="16.67" length="116.47" shape="322.16,694.44 310.58,668.84 286.71,617.39 271.78,589.36"/>
    </edge>
    <edge id="-37766220#1" from="320666841" to="1759697987" priority="11" type="highway.secondary">
        <lane id="-37766220#1_0" index="0" disallow="tram rail_urban rail rail_electric rail_fast ship container cable_car subway aircraft wheelchair scooter drone" speed="16.67" length="17.73" shape="325.82,712.32 319.27,695.84"/>
        <lane id="-37766220#1_1" index="1" disallow="tram rail_urban rail rail_electric rail_fast ship container cable_car subway aircraft wheelchair scooter drone" speed="16.67" length="17.73" shape="328.79,711.14 322.24,694.65"/>
    </edge>
    <edge id="-527862333#0" from="10707618810" to="5130981344" priority="1" type="highway.service" shape="190.66,652.01 194.36,671.29 172.54,677.32 175.61,694.62 177.75,706.72 181.95,729.46">
        <lane id="-527862333#0_0" index="0" allow="pedestrian delivery bicycle" speed="5.56" length="93.34" shape="192.59,653.62 196.21,672.44 174.37,678.47 177.18,694.34 179.32,706.44 183.53,729.17"/>
    </edge>
    <edge id="-527862333#1" from="6611893839" to="10707618810" priority="1" type="highway.service">
        <lane id="-527862333#1_0" index="0" allow="pedestrian delivery bicycle" speed="5.56" length="0.20" shape="191.96,650.35 192.00,650.55"/>
    </edge>
    <edge id="-87322344" from="320684113" to="391377333" priority="11" type="highway.secondary">
        <lane id="-87322344_0" index="0" disallow="tram rail_urban rail rail_electric rail_fast ship container cable_car subway aircraft wheelchair scooter drone" speed="27.78" length="0.84" shape="264.29,576.49 263.88,575.76"/>
    </edge>
    <edge id="1151039493" from="440100890" to="10707618819" priority="1" type="highway.footway" spreadType="center" shape="218.65,647.59 222.04,673.69 233.13,672.62">
        <lane id="1151039493_0" index="0" allow="pedestrian" speed="2.78" length="35.54" width="2.00" shape="218.90,649.49 222.04,673.69 233.13,672.62"/>
    </edge>
    <edge id="220274608#0" from="3991131256" to="495217805" priority="20" type="railway.rail" spreadType="center" shape="432.90,872.21 338.19,664.77 320.56,625.88 304.98,594.51">
        <lane id="220274608#0_0" index="0" allow="rail rail_electric rail_fast" speed="8.33" length="305.76" shape="432.90,872.21 338.19,664.77 320.56,625.88 304.98,594.51"/>
    </edge>
    <edge id="220274608#1" from="495217805" to="320670923" priority="20" type="railway.rail" spreadType="center">
        <lane id="220274608#1_0" index="0" allow="rail rail_electric rail_fast" speed="8.33" length="21.66" shape="304.98,594.51 293.66,576.05"/>
    </edge>
    <edge id="29155567" from="320684113" to="320684115" priority="11" type="highway.secondary" spreadType="center" shape="275.75,593.41 269.05,586.08 260.46,582.32 253.64,583.20">
        <lane id="29155567_0" index="0" disallow="tram rail_urban rail rail_electric rail_fast ship container cable_car subway aircraft wheelchair scooter drone" speed="16.67" length="0.37" shape="258.63,584.17 258.44,584.19"/>
        <lane id="29155567_1" index="1" disallow="tram rail_urban rail rail_electric rail_fast ship container cable_car subway aircraft wheelchair scooter drone" speed="16.67" length="0.37" shape="259.97,580.77 259.44,580.84"/>
    </edge>
    <edge id="29155895#0" from="320666772" to="320685827" priority="11" type="highway.secondary" spreadType="center" shape="182.14,646.61 196.46,640.62 201.48,636.70 206.50,632.90 209.39,628.61">
        <lane id="29155895#0_0" index="0" disallow="tram rail_urban rail rail_electric rail_fast ship container cable_car subway aircraft wheelchair scooter drone" speed="16.67" length="26.59" shape="186.04,644.98 196.46,640.62 201.48,636.70 206.50,632.90 207.97,630.72"/>
    </edge>
    <edge id="29155895#1" from="320685827" to="391377329" priority="11" type="highway.secondary" spreadType="center" shape="209.39,628.61 211.93,624.89 214.02,620.17 215.30,615.11 216.67,603.31 218.69,595.77 221.94,589.93 226.36,584.63 234.39,577.70 241.05,572.03">
        <lane id="29155895#1_0" index="0" disallow="tram rail_urban rail rail_electric rail_fast ship container cable_car subway aircraft wheelchair scooter drone" speed="16.67" length="55.89" shape="210.83,626.49 211.93,624.89 214.02,620.17 215.30,615.11 216.67,603.31 218.69,595.77 221.94,589.93 226.36,584.63 234.16,577.90"/>
    </edge>
    <edge id="29162923#0" from="320685502" to="320685840" priority="10" type="highway.tertiary" shape="162.82,411.29 170.03,414.42 175.76,420.25 246.09,541.75">
        <lane id="29162923#0_0" index="0" disallow="tram rail_urban rail rail_electric rail_fast ship container cable_car subway aircraft wheelchair scooter drone" speed="16.67" length="158.68" shape="163.45,409.83 170.96,413.08 177.04,419.28 248.09,542.01"/>
    </edge>
    <edge id="29162923#1" from="320685840" to="391377333" priority="10" type="highway.tertiary" shape="246.09,541.75 256.15,559.13 261.36,568.08">
        <lane id="29162923#1_0" index="0" disallow="tram rail_urban rail rail_electric rail_fast ship container cable_car subway aircraft wheelchair scooter drone" speed="16.67" length="9.50" shape="253.10,550.67 257.53,558.33 257.86,558.90"/>
    </edge>
    <edge id="30111899" from="320666773" to="320666775" priority="11" type="highway.secondary" spreadType="center">
        <lane id="30111899_0" index="0" disallow="tram rail_urban rail rail_electric rail_fast ship container cable_car subway aircraft wheelchair scooter drone" speed="16.67" length="61.61" shape="281.41,637.99 342.58,630.68"/>
        <lane id="30111899_1" index="1" disallow="tram rail_urban rail rail_electric rail_fast ship container cable_car subway aircraft wheelchair scooter drone" speed="16.67" length="61.61" shape="281.79,641.17 342.96,633.86"/>
        <lane id="30111899_2" index="2" disallow="tram rail_urban rail rail_electric rail_fast ship container cable_car subway aircraft wheelchair scooter drone" speed="16.67" length="61.61" shape="282.17,644.35 343.34,637.03"/>
    </edge>
    <edge id="34133049" from="391377329" to="391377333" priority="11" type="highway.secondary" spreadType="center" shape="241.05,572.03 248.23,569.30 255.30,567.96 261.36,568.08">
        <lane id="34133049_0" index="0" disallow="tram rail_urban rail rail_electric rail_fast ship container cable_car subway aircraft wheelchair scooter drone" speed="16.67" length="0.41" shape="251.15,567.12 251.76,567.00"/>
        <lane id="34133049_1" index="1" disallow="tram rail_urban rail rail_electric rail_fast ship container cable_car subway aircraft wheelchair scooter drone" speed="16.67" length="0.41" shape="251.90,570.23 252.10,570.19"/>
    </edge>
    <edge id="375506249#0" from="440100886" to="320685827" priority="1" type="highway.footway" spreadType="center">
        <lane id="375506249#0_0" index="0" allow="pedestrian" speed="2.78" length="4.15" width="2.00" shape="215.56,632.49 212.04,630.28"/>
    </edge>
    <edge id="375506249#1" from="320685827" to="3788687842" priority="1" type="highway.footway" spreadType="center">
        <lane id="375506249#1_0" index="0" allow="pedestrian" speed="2.78" length="2.27" width="2.00" shape="206.74,626.94 204.82,625.73"/>
    </edge>
    <edge id="375506250#0" from="3788687843" to="3788687850" priority="1" type="highway.footway" spreadType="center">
        <lane id="375506250#0_0" index="0" allow="pedestrian" speed="2.78" length="22.47" width="2.00" shape="181.12,635.48 176.88,613.42"/>
    </edge>
    <edge id="375506250#1" from="3788687850" to="5111696121" priority="1" type="highway.footway" spreadType="center">
        <lane id="375506250#1_0" index="0" allow="pedestrian" speed="2.78" length="22.97" width="2.00" shape="175.86,608.56 170.76,586.16"/>
    </edge>
    <edge id="375506251" from="3788687842" to="4235854855" priority="1" type="highway.footway" spreadType="center">
        <lane id="375506251_0" index="0" allow="pedestrian" speed="2.78" length="12.12" width="2.00" shape="201.93,620.51 199.64,608.62"/>
    </edge>
    <edge id="375506252" from="3788687850" to="6885008067" priority="1" type="highway.footway" spreadType="center">