<?xml version="1.0" encoding="UTF-8"?>

<!-- generated on 2024-09-03 01:37:47 by Eclipse SUMO netconvert Version 1.20.0
<configuration xmlns:xsi="http://www.w3.org/2001/XMLSchema-instance" xsi:noNamespaceSchemaLocation="http://sumo.dlr.de/xsd/netconvertConfiguration.xsd">

    <input>
        <osm-files value="train_files/roundabout/middle/osm_files/map(27).osm"/>
    </input>

    <output>
        <output-file value="train_files/roundabout/middle/outputs/map(27)_dict/map(27)/map(27).net.xml"/>
    </output>

    <projection>
        <proj.utm value="true"/>
    </projection>

    <building_defaults>
        <default.junctions.keep-clear value="false"/>
    </building_defaults>

</configuration>
-->

<net version="1.20" junctionCornerDetail="5" limitTurnSpeed="5.50" xmlns:xsi="http://www.w3.org/2001/XMLSchema-instance" xsi:noNamespaceSchemaLocation="http://sumo.dlr.de/xsd/net_file.xsd">

    <location netOffset="-467413.09,-5390211.43" convBoundary="0.00,0.00,1044.44,251.56" origBoundary="2.557424,48.664127,2.571625,48.666375" projParameter="+proj=utm +zone=31 +ellps=WGS84 +datum=WGS84 +units=m +no_defs"/>

    <type id="highway.residential" priority="3" numLanes="1" speed="13.89" disallow="tram rail_urban rail rail_electric rail_fast ship container cable_car subway aircraft wheelchair scooter drone" oneway="0"/>
    <type id="highway.secondary" priority="11" numLanes="1" speed="27.78" disallow="tram rail_urban rail rail_electric rail_fast ship container cable_car subway aircraft wheelchair scooter drone" oneway="0"/>

    <edge id=":317410815_0" function="internal">
        <lane id=":317410815_0_0" index="0" disallow="tram rail_urban rail rail_electric rail_fast ship container cable_car subway aircraft wheelchair scooter drone" speed="3.65" length="4.67" shape="1043.91,11.06 1045.30,11.41 1045.95,12.03 1045.84,12.92 1044.98,14.07"/>
    </edge>
    <edge id=":317476004_0" function="internal">
        <lane id=":317476004_0_0" index="0" disallow="tram rail_urban rail rail_electric rail_fast ship container cable_car subway aircraft wheelchair scooter drone" speed="8.33" length="0.30" width="3.00" shape="23.56,228.41 23.85,228.48"/>
    </edge>
    <edge id=":317476097_0" function="internal">
        <lane id=":317476097_0_0" index="0" disallow="tram rail_urban rail rail_electric rail_fast ship container cable_car subway aircraft wheelchair scooter drone" speed="8.23" length="7.35" shape="443.53,62.03 442.46,60.18 441.83,58.41 441.65,56.72 441.91,55.11"/>
    </edge>
    <edge id=":317476097_1" function="internal">
        <lane id=":317476097_1_0" index="0" disallow="tram rail_urban rail rail_electric rail_fast ship container cable_car subway aircraft wheelchair scooter drone" speed="9.00" length="6.85" shape="438.01,60.40 439.69,59.33 440.67,58.32 441.30,57.03 441.91,55.11"/>
    </edge>
    <edge id=":317566735_0" function="internal">
        <lane id=":317566735_0_0" index="0" disallow="tram rail_urban rail rail_electric rail_fast ship container cable_car subway aircraft wheelchair scooter drone" speed="10.27" length="8.41" shape="462.50,56.11 460.23,56.80 458.92,57.84 457.87,59.35 456.42,61.41"/>
    </edge>
    <edge id=":317566735_1" function="internal">
        <lane id=":317566735_1_0" index="0" disallow="tram rail_urban rail rail_electric rail_fast ship container cable_car subway aircraft wheelchair scooter drone" speed="9.80" length="8.55" shape="454.23,50.22 456.30,51.72 457.84,52.72 459.51,53.16 461.93,52.96"/>
    </edge>
    <edge id=":317566735_2" function="internal">
        <lane id=":317566735_2_0" index="0" disallow="tram rail_urban rail rail_electric rail_fast ship container cable_car subway aircraft wheelchair scooter drone" speed="7.55" length="13.24" shape="454.23,50.22 457.07,52.75 458.38,55.46 458.17,58.35 456.42,61.41"/>
    </edge>
    <edge id=":317566762_0" function="internal">
        <lane id=":317566762_0_0" index="0" disallow="tram rail_urban rail rail_electric rail_fast ship container cable_car subway aircraft wheelchair scooter drone" speed="3.65" length="4.67" shape="440.99,0.01 441.78,-1.19 442.58,-1.60 443.38,-1.21 444.19,-0.01"/>
    </edge>
    <edge id=":317566764_0" function="internal">
        <lane id=":317566764_0_0" index="0" disallow="tram rail_urban rail rail_electric rail_fast ship container cable_car subway aircraft wheelchair scooter drone" speed="8.10" length="9.03" shape="445.80,44.14 446.51,45.77 447.90,47.18 449.95,48.39 452.67,49.38"/>
    </edge>
    <edge id=":317566764_1" function="internal">
        <lane id=":317566764_1_0" index="0" disallow="tram rail_urban rail rail_electric rail_fast ship container cable_car subway aircraft wheelchair scooter drone" speed="14.87" length="9.93" shape="441.95,54.99 442.83,52.18 443.29,50.18 443.29,48.16 442.78,45.29"/>
    </edge>
    <edge id=":317566764_2" function="internal">
        <lane id=":317566764_2_0" index="0" disallow="tram rail_urban rail rail_electric rail_fast ship container cable_car subway aircraft wheelchair scooter drone" speed="7.93" length="13.75" shape="441.95,54.99 443.54,51.63 445.86,49.58 448.90,48.83 452.67,49.38"/>
    </edge>
    <edge id=":317566939_0" function="internal">
        <lane id=":317566939_0_0" index="0" disallow="tram rail_urban rail rail_electric rail_fast ship container cable_car subway aircraft wheelchair scooter drone" speed="10.79" length="8.94" shape="449.53,70.25 448.89,67.73 448.05,66.12 446.73,64.78 444.67,63.12"/>
    </edge>
    <edge id=":317566939_1" function="internal">
        <lane id=":317566939_1_0" index="0" disallow="tram rail_urban rail rail_electric rail_fast ship container cable_car subway aircraft wheelchair scooter drone" speed="8.92" length="8.25" width="2.45" shape="455.44,62.65 453.75,64.96 452.60,66.94 452.01,68.60 451.96,69.93"/>
    </edge>
    <edge id=":317566939_2" function="internal">
        <lane id=":317566939_2_0" index="0" disallow="tram rail_urban rail rail_electric rail_fast ship container cable_car subway aircraft wheelchair scooter drone" speed="7.46" length="12.30" shape="455.44,62.65 453.10,64.78 450.52,65.56 447.72,65.01 444.67,63.12"/>
    </edge>
    <edge id=":317566948_0" function="internal">
        <lane id=":317566948_0_0" index="0" disallow="tram rail_urban rail rail_electric rail_fast ship container cable_car subway aircraft wheelchair scooter drone" speed="3.19" length="3.58" width="2.45" shape="481.65,157.79 480.85,158.55 480.19,158.72 479.66,158.28 479.27,157.25"/>
    </edge>

    <edge id="-28890364" from="317410815" to="317566735" priority="11" type="highway.secondary" shape="1044.44,12.56 1019.70,21.34 999.45,29.29 988.44,32.99 958.99,37.23 937.18,37.48 930.84,37.49 922.80,37.24 891.83,35.78 882.35,35.00 872.66,34.09 868.56,33.76 863.25,32.97 858.30,32.22 853.03,29.61 834.36,19.59 808.43,6.38 803.89,5.19 794.65,4.66 765.67,10.00 756.46,11.71 744.76,14.28 736.67,14.59 723.17,15.45 718.18,15.64 713.96,15.82 708.52,16.15 695.88,16.90 671.90,16.48 662.50,18.27 654.36,19.91 614.22,29.02 597.62,32.83 555.15,40.78 528.47,44.65 499.06,48.74 467.94,53.49 466.13,53.82 461.00,54.75 457.76,55.34">
        <lane id="-28890364_0" index="0" disallow="tram rail_urban rail rail_electric rail_fast ship container cable_car subway aircraft wheelchair scooter drone" speed="8.33" length="597.66" shape="1044.98,14.07 1020.26,22.84 1000.00,30.79 988.81,34.55 959.12,38.83 937.20,39.08 930.82,39.09 922.73,38.83 891.73,37.37 882.21,36.59 872.52,35.69 868.38,35.35 863.01,34.55 857.81,33.76 852.30,31.04 833.62,21.01 807.86,7.88 803.64,6.78 794.75,6.26 765.96,11.57 756.78,13.28 744.97,15.87 736.75,16.19 723.25,17.05 718.24,17.24 714.04,17.42 708.61,17.75 695.92,18.50 672.04,18.08 662.81,19.84 654.70,21.48 614.57,30.58 597.95,34.40 555.41,42.35 528.70,46.24 499.29,50.33 468.18,55.07 466.41,55.40 462.50,56.11"/>
        <param key="ref" value="D 50"/>
    </edge>
    <edge id="-28890367" from="317566948" to="317566939" priority="3" type="highway.residential" shape="480.46,157.52 483.35,144.87 481.74,129.69 476.97,112.27 459.07,87.85 452.54,79.26 450.68,69.76 450.06,65.01">
        <lane id="-28890367_0" index="0" disallow="tram rail_urban rail rail_electric rail_fast ship container cable_car subway aircraft wheelchair scooter drone" speed="8.33" length="96.28" width="2.45" shape="479.27,157.25 482.11,144.79 480.54,129.92 475.85,112.81 458.09,88.58 451.39,79.77 449.53,70.25"/>
    </edge>
    <edge id="-490072921" from="317566764" to="317566762" priority="11" type="highway.secondary" shape="445.88,49.77 444.73,46.74 442.86,38.15 442.59,0.00">
        <lane id="-490072921_0" index="0" disallow="tram rail_urban rail rail_electric rail_fast ship container cable_car subway aircraft wheelchair scooter drone" speed="27.78" length="45.44" shape="442.78,45.29 441.26,38.33 440.99,0.01"/>
        <param key="ref" value="D 50"/>
    </edge>
    <edge id="167369506#0" from="317476003" to="317476004" priority="3" type="highway.residential" spreadType="center" shape="0.00,221.77 19.16,227.36 23.70,228.45">
        <lane id="167369506#0_0" index="0" disallow="tram rail_urban rail rail_electric rail_fast ship container cable_car subway aircraft wheelchair scooter drone" speed="8.33" length="24.48" width="3.00" shape="0.00,221.77 19.16,227.36 23.56,228.41"/>
    </edge>
    <edge id="167369506#1" from="317476004" to="317476097" priority="3" type="highway.residential" spreadType="center" shape="23.70,228.45 27.41,229.31 53.22,235.88 95.33,246.67 101.28,247.55 107.56,248.72 120.75,251.16 137.22,251.48 141.07,251.56 145.63,250.74 148.68,250.19 157.96,247.54 165.77,244.82 176.05,240.01 196.04,226.29 259.23,174.25 265.19,169.35 288.46,152.28 306.73,138.86 309.38,137.03 314.05,133.79 339.23,119.58 355.87,110.47 376.42,97.81 396.26,84.75 431.36,64.23 437.57,60.66 441.75,58.26">
        <lane id="167369506#1_0" index="0" disallow="tram rail_urban rail rail_electric rail_fast ship container cable_car subway aircraft wheelchair scooter drone" speed="8.33" length="475.26" width="3.00" shape="23.85,228.48 27.41,229.31 53.22,235.88 95.33,246.67 101.28,247.55 107.56,248.72 120.75,251.16 137.22,251.48 141.07,251.56 145.63,250.74 148.68,250.19 157.96,247.54 165.77,244.82 176.05,240.01 196.04,226.29 259.23,174.25 265.19,169.35 288.46,152.28 306.73,138.86 309.38,137.03 314.05,133.79 339.23,119.58 355.87,110.47 376.42,97.81 396.26,84.75 431.36,64.23 437.57,60.66 438.01,60.40"/>
    </edge>
    <edge id="283554870#0" from="317566735" to="317566939" priority="11" type="highway.secondary" spreadType="center" shape="457.76,55.34 457.82,58.14 456.93,60.78 455.19,62.97 452.80,64.44 450.06,65.01">
        <lane id="283554870#0_0" index="0" disallow="tram rail_urban rail rail_electric rail_fast ship container cable_car subway aircraft wheelchair scooter drone" speed="27.78" length="1.58" shape="456.42,61.41 455.44,62.65"/>
    </edge>
    <edge id="283554870#1" from="317566939" to="317476097" priority="11" type="highway.secondary" spreadType="center" shape="450.06,65.01 447.74,64.76 445.60,63.87 443.78,62.40 442.47,60.48 441.75,58.26">
        <lane id="283554870#1_0" index="0" disallow="tram rail_urban rail rail_electric rail_fast ship container cable_car subway aircraft wheelchair scooter drone" speed="27.78" length="1.59" shape="444.67,63.12 443.78,62.40 443.53,62.03"/>
    </edge>
    <edge id="283554870#2" from="317476097" to="317566764" priority="11" type="highway.secondary" spreadType="center" shape="441.75,58.26 441.71,55.75 442.45,53.36 443.89,51.29 445.88,49.77">
        <lane id="283554870#2_0" index="0" disallow="tram rail_urban rail rail_electric rail_fast ship container cable_car subway aircraft wheelchair scooter drone" speed="27.78" length="0.13" shape="441.91,55.11 441.95,54.99"/>
    </edge>
    <edge id="283554870#3" from="317566764" to="317566735" priority="11" type="highway.secondary" spreadType="center" shape="445.88,49.77 448.28,48.92 450.81,48.84 453.25,49.55 455.34,50.97 456.90,52.96 457.76,55.34">
        <lane id="283554870#3_0" index="0" disallow="tram rail_urban rail rail_electric rail_fast ship container cable_car subway aircraft wheelchair scooter drone" speed="27.78" length="1.79" shape="452.67,49.38 453.25,49.55 454.23,50.22"/>
    </edge>
    <edge id="28890364" from="317566735" to="317410815" priority="11" type="highway.secondary" shape="457.76,55.34 461.00,54.75 466.13,53.82 467.94,53.49 499.06,48.74 528.47,44.65 555.15,40.78 597.62,32.83 614.22,29.02 654.36,19.91 662.50,18.27 671.90,16.48 695.88,16.90 708.52,16.15 713.96,15.82 718.18,15.64 723.17,15.45 736.67,14.59 744.76,14.28 756.46,11.71 765.67,10.00 794.65,4.66 803.89,5.19 808.43,6.38 834.36,19.59 853.03,29.61 858.30,32.22 863.25,32.97 868.56,33.76 872.66,34.09 882.35,35.00 891.83,35.78 922.80,37.24 930.84,37.49 937.18,37.48 958.99,37.23 988.44,32.99 999.45,29.29 1019.70,21.34 1044.44,12.56">
        <lane id="28890364_0" index="0" disallow="tram rail_urban rail rail_electric rail_fast ship container cable_car subway aircraft wheelchair scooter drone" speed="8.33" length="597.14" shape="461.93,52.96 465.84,52.25 467.67,51.91 498.83,47.16 528.25,43.07 554.89,39.20 597.30,31.26 613.86,27.46 654.03,18.35 662.19,16.70 671.76,14.88 695.85,15.30 708.42,14.55 713.87,14.22 718.12,14.04 723.09,13.86 736.59,12.99 744.56,12.68 756.15,10.14 765.38,8.43 794.55,3.05 804.14,3.60 809.00,4.87 835.10,18.18 853.77,28.19 858.79,30.67 863.49,31.39 868.74,32.17 872.80,32.50 882.49,33.40 891.93,34.18 922.86,35.64 930.87,35.89 937.17,35.88 958.87,35.63 988.07,31.42 998.90,27.79 1019.14,19.84 1043.91,11.06"/>
        <param key="ref" value="D 50"/>
    </edge>
    <edge id="28890367" from="317566939" to="317566948" priority="3" type="highway.residential" shape="450.06,65.01 450.68,69.76 452.54,79.26 459.07,87.85 476.97,112.27 481.74,129.69 483.35,144.87 480.46,157.52">
        <lane id="28890367_0" index="0" disallow="tram rail_urban rail rail_electric rail_fast ship container cable_car subway aircraft wheelchair scooter drone" speed="8.33" length="97.15" width="2.45" shape="451.96,69.93 453.69,78.74 460.05,87.11 478.09,111.72 482.95,129.46 484.59,144.94 481.65,157.79"/>
    </edge>
    <edge id="490072921" from="317566762" to="317566764" priority="11" type="highway.secondary" shape="442.59,0.00 442.86,38.15 444.73,46.74 445.88,49.77">
        <lane id="490072921_0" index="0" disallow="tram rail_urban rail rail_electric rail_fast ship container cable_car subway aircraft wheelchair scooter drone" speed="27.78" length="44.30" shape="444.19,-0.01 444.46,37.97 445.80,44.14"/>
        <param key="ref" value="D 50"/>
    </edge>

    <tlLogic id="317476004" type="static" programID="0" offset="0">
        <phase duration="82" state="G"/>
        <phase duration="3"  state="y"/>
        <phase duration="5"  state="r"/>
    </tlLogic>

    <junction id="317410815" type="priority" x="1044.44" y="12.56" incLanes="28890364_0" intLanes=":317410815_0_0" shape="1044.44,12.56 1043.37,9.55 1044.44,12.56">
        <request index="0" response="0" foes="0" cont="0"/>
    </junction>
    <junction id="317476003" type="dead_end" x="0.00" y="221.77" incLanes="" intLanes="" shape="-0.42,223.21 0.42,220.33"/>
    <junction id="317476004" type="traffic_light" x="23.70" y="228.45" incLanes="167369506#0_0" intLanes=":317476004_0_0" shape="23.51,229.94 24.19,227.02 23.91,226.96 23.21,229.87">
        <request index="0" response="0" foes="0" cont="0"/>
    </junction>
    <junction id="317476097" type="priority" x="441.75" y="58.26" incLanes="283554870#1_0 167369506#1_0" intLanes=":317476097_0_0 :317476097_1_0" shape="441.96,62.57 445.18,61.47 443.74,59.74 443.36,58.72 443.21,57.61 443.29,56.40 443.59,55.09 440.23,55.12 439.62,56.93 439.28,57.54 438.83,58.05 438.18,58.54 437.27,59.10 438.75,61.70 439.94,61.32 440.49,61.38 441.01,61.61 441.50,62.01">
        <request index="0" response="00" foes="10" cont="0"/>
        <request index="1" response="01" foes="01" cont="0"/>
    </junction>
    <junction id="317566735" type="priority" x="457.76" y="55.34" incLanes="-28890364_0 283554870#3_0" intLanes=":317566735_0_0 :317566735_1_0 :317566735_2_0" shape="454.47,61.30 458.36,61.53 459.67,59.64 460.17,58.95 460.76,58.41 461.58,57.99 462.79,57.68 461.65,51.38 459.41,51.50 458.63,51.25 457.88,50.82 457.04,50.22 455.96,49.45 452.47,50.99 454.88,51.96 456.41,53.22 457.13,54.78 457.05,56.64 456.16,58.82">
        <request index="0" response="100" foes="100" cont="0"/>
        <request index="1" response="000" foes="000" cont="0"/>
        <request index="2" response="000" foes="001" cont="0"/>
    </junction>
    <junction id="317566762" type="priority" x="442.59" y="0.00" incLanes="-490072921_0" intLanes=":317566762_0_0" shape="442.59,0.00 439.39,0.02 442.59,0.00">
        <request index="0" response="0" foes="0" cont="0"/>
    </junction>
    <junction id="317566764" type="priority" x="445.88" y="49.77" incLanes="490072921_0 283554870#2_0" intLanes=":317566764_0_0 :317566764_1_0 :317566764_2_0" shape="453.17,51.43 452.23,47.59 449.77,46.58 448.85,45.96 448.13,45.24 447.62,44.45 447.31,43.57 441.26,45.86 441.74,48.74 441.72,49.77 441.54,50.80 441.19,52.02 440.70,53.62 443.32,56.49 443.55,53.06 444.34,50.66 445.70,49.30 447.62,48.98 450.11,49.69">
        <request index="0" response="100" foes="100" cont="0"/>
        <request index="1" response="000" foes="000" cont="0"/>
        <request index="2" response="000" foes="001" cont="0"/>
    </junction>
    <junction id="317566939" type="priority" x="450.06" y="65.01" incLanes="-28890367_0 283554870#0_0" intLanes=":317566939_0_0 :317566939_1_0 :317566939_2_0" shape="448.31,70.41 453.18,69.77 453.20,67.71 453.54,66.78 454.11,65.92 454.91,65.12 455.93,64.39 454.91,60.75 453.09,62.70 451.34,63.90 449.65,64.37 448.03,64.09 446.47,63.07 444.96,61.29 444.38,64.94 446.42,66.57 447.08,67.23 447.59,68.00 447.98,69.01">
        <request index="0" response="100" foes="100" cont="0"/>
        <request index="1" response="000" foes="000" cont="0"/>
        <request index="2" response="000" foes="001" cont="0"/>
    </junction>
    <junction id="317566948" type="priority" x="480.46" y="157.52" incLanes="28890367_0" intLanes=":317566948_0_0" shape="480.46,157.52 482.85,158.07 480.46,157.52">
        <request index="0" response="0" foes="0" cont="0"/>
    </junction>

    <connection from="-28890364" to="283554870#0" fromLane="0" toLane="0" keepClear="0" via=":317566735_0_0" dir="r" state="m" visibility="9.00"/>
    <connection from="-28890367" to="283554870#1" fromLane="0" toLane="0" keepClear="0" via=":317566939_0_0" dir="r" state="m" visibility="9.00"/>
    <connection from="-490072921" to="490072921" fromLane="0" toLane="0" via=":317566762_0_0" dir="t" state="M"/>
    <connection from="167369506#0" to="167369506#1" fromLane="0" toLane="0" via=":317476004_0_0" tl="317476004" linkIndex="0" dir="s" state="O"/>
    <connection from="167369506#1" to="283554870#2" fromLane="0" toLane="0" keepClear="0" via=":317476097_1_0" dir="r" state="m" visibility="9.00"/>
    <connection from="283554870#0" to="28890367" fromLane="0" toLane="0" keepClear="0" via=":317566939_1_0" dir="r" state="M"/>
    <connection from="283554870#0" to="283554870#1" fromLane="0" toLane="0" keepClear="0" via=":317566939_2_0" dir="s" state="M"/>
    <connection from="283554870#1" to="283554870#2" fromLane="0" toLane="0" keepClear="0" via=":317476097_0_0" dir="s" state="M"/>
    <connection from="283554870#2" to="-490072921" fromLane="0" toLane="0" keepClear="0" via=":317566764_1_0" dir="r" state="M"/>
    <connection from="283554870#2" to="283554870#3" fromLane="0" toLane="0" keepClear="0" via=":317566764_2_0" dir="s" state="M"/>
    <connection from="283554870#3" to="28890364" fromLane="0" toLane="0" keepClear="0" via=":317566735_1_0" dir="r" state="M"/>
    <connection from="283554870#3" to="283554870#0" fromLane="0" toLane="0" keepClear="0" via=":317566735_2_0" dir="s" state="M"/>
    <connection from="28890364" to="-28890364" fromLane="0" toLane="0" via=":317410815_0_0" dir="t" state="M"/>
    <connection from="28890367" to="-28890367" fromLane="0" toLane="0" via=":317566948_0_0" dir="t" state="M"/>
    <connection from="490072921" to="283554870#3" fromLane="0" toLane="0" keepClear="0" via=":317566764_0_0" dir="r" state="m" visibility="9.00"/>

    <connection from=":317410815_0" to="-28890364" fromLane="0" toLane="0" dir="t" state="M"/>
    <connection from=":317476004_0" to="167369506#1" fromLane="0" toLane="0" dir="s" state="M"/>
    <connection from=":317476097_0" to="283554870#2" fromLane="0" toLane="0" dir="s" state="M"/>
    <connection from=":317476097_1" to="283554870#2" fromLane="0" toLane="0" dir="r" state="M"/>
    <connection from=":317566735_0" to="283554870#0" fromLane="0" toLane="0" dir="r" state="M"/>
    <connection from=":317566735_1" to="28890364" fromLane="0" toLane="0" dir="r" state="M"/>
    <connection from=":317566735_2" to="283554870#0" fromLane="0" toLane="0" dir="s" state="M"/>
    <connection from=":317566762_0" to="490072921" fromLane="0" toLane="0" dir="t" state="M"/>
    <connection from=":317566764_0" to="283554870#3" fromLane="0" toLane="0" dir="r" state="M"/>
    <connection from=":317566764_1" to="-490072921" fromLane="0" toLane="0" dir="r" state="M"/>
    <connection from=":317566764_2" to="283554870#3" fromLane="0" toLane="0" dir="s" state="M"/>
    <connection from=":317566939_0" to="283554870#1" fromLane="0" toLane="0" dir="r" state="M"/>
    <connection from=":317566939_1" to="28890367" fromLane="0" toLane="0" dir="r" state="M"/>
    <connection from=":317566939_2" to="283554870#1" fromLane="0" toLane="0" dir="s" state="M"/>
    <connection from=":317566948_0" to="-28890367" fromLane="0" toLane="0" dir="t" state="M"/>

    <roundabout nodes="317476097 317566735 317566764 317566939" edges="283554870#0 283554870#1 283554870#2 283554870#3"/>

</net>
