<?xml version="1.0" encoding="UTF-8"?>

<!-- generated on 2024-09-03 01:38:38 by Eclipse SUMO netconvert Version 1.20.0
<configuration xmlns:xsi="http://www.w3.org/2001/XMLSchema-instance" xsi:noNamespaceSchemaLocation="http://sumo.dlr.de/xsd/netconvertConfiguration.xsd">

    <input>
        <osm-files value="train_files/roundabout/hard/osm_files/ra_1.osm"/>
    </input>

    <output>
        <output-file value="train_files/roundabout/hard/outputs/ra_1_dict/ra_1/ra_1.net.xml"/>
    </output>

    <projection>
        <proj.utm value="true"/>
    </projection>

    <building_defaults>
        <default.junctions.keep-clear value="false"/>
    </building_defaults>

</configuration>
-->

<net version="1.20" junctionCornerDetail="5" limitTurnSpeed="5.50" xmlns:xsi="http://www.w3.org/2001/XMLSchema-instance" xsi:noNamespaceSchemaLocation="http://sumo.dlr.de/xsd/net_file.xsd">

    <location netOffset="-434865.38,-5390840.23" convBoundary="0.00,0.00,562.06,293.00" origBoundary="2.115339,48.667233,2.122963,48.669888" projParameter="+proj=utm +zone=31 +ellps=WGS84 +datum=WGS84 +units=m +no_defs"/>

    <type id="highway.cycleway" priority="1" numLanes="1" speed="5.56" allow="bicycle" oneway="0" width="2.00"/>
    <type id="highway.footway" priority="1" numLanes="1" speed="2.78" allow="pedestrian" oneway="1" width="2.00"/>
    <type id="highway.path" priority="1" numLanes="1" speed="5.56" allow="pedestrian bicycle" oneway="0" width="2.00"/>
    <type id="highway.primary" priority="12" numLanes="2" speed="27.78" disallow="tram rail_urban rail rail_electric rail_fast ship container cable_car subway aircraft wheelchair scooter drone" oneway="0"/>
    <type id="highway.secondary" priority="11" numLanes="1" speed="27.78" disallow="tram rail_urban rail rail_electric rail_fast ship container cable_car subway aircraft wheelchair scooter drone" oneway="0"/>
    <type id="highway.service" priority="1" numLanes="1" speed="5.56" allow="pedestrian delivery bicycle" oneway="0"/>
    <type id="highway.unclassified" priority="4" numLanes="1" speed="13.89" disallow="tram rail_urban rail rail_electric rail_fast ship container cable_car subway aircraft wheelchair scooter drone" oneway="0"/>

    <edge id=":1020975007_0" function="internal">
        <lane id=":1020975007_0_0" index="0" allow="bicycle" speed="6.48" length="5.38" width="2.00" shape="194.14,106.67 195.20,107.44 196.39,107.87 197.71,107.96 199.18,107.73"/>
    </edge>
    <edge id=":1020975007_1" function="internal">
        <lane id=":1020975007_1_0" index="0" disallow="pedestrian tram rail_urban rail rail_electric rail_fast ship container cable_car subway aircraft wheelchair scooter drone" speed="13.89" length="5.59" shape="193.89,110.52 195.46,109.74 196.54,109.22 197.66,108.79 199.33,108.31"/>
        <lane id=":1020975007_1_1" index="1" disallow="pedestrian tram rail_urban rail rail_electric rail_fast ship container cable_car subway aircraft wheelchair scooter drone" speed="13.89" length="5.59" shape="195.28,113.40 196.69,112.70 197.65,112.22 198.65,111.84 200.15,111.40"/>
    </edge>
    <edge id=":1587374533_0" function="internal">
        <lane id=":1587374533_0_0" index="0" disallow="tram rail_urban rail rail_electric rail_fast ship container cable_car subway aircraft wheelchair scooter drone" speed="3.65" length="4.67" shape="-0.59,122.31 -1.41,121.12 -1.49,120.23 -0.82,119.64 0.59,119.34"/>
    </edge>
    <edge id=":1587374616_0" function="internal">
        <lane id=":1587374616_0_0" index="0" allow="bicycle" speed="2.37" length="1.97" width="1.35" shape="468.06,176.38 468.35,176.92 468.33,177.30 468.02,177.51 467.42,177.57"/>
    </edge>
    <edge id=":1587374656_0" function="internal">
        <lane id=":1587374656_0_0" index="0" allow="bicycle" speed="4.78" length="4.30" width="1.35" shape="258.63,203.42 258.05,204.08 257.82,204.96 257.96,206.06 258.46,207.37"/>
    </edge>
    <edge id=":1587374656_1" function="internal">
        <lane id=":1587374656_1_0" index="0" allow="bicycle" speed="5.56" length="6.09" width="1.35" shape="258.63,203.42 257.20,204.51 256.24,205.30 255.25,206.05 253.73,207.02"/>
    </edge>
    <edge id=":1587374656_2" function="internal">
        <lane id=":1587374656_2_0" index="0" allow="bicycle" speed="2.66" length="2.24" width="1.35" shape="258.63,203.42 257.96,203.59 257.55,203.48 257.39,203.08 257.49,202.39"/>
    </edge>
    <edge id=":1587374656_3" function="internal">
        <lane id=":1587374656_3_0" index="0" allow="bicycle" speed="3.78" length="3.47" width="1.35" shape="255.14,201.00 255.90,202.17 256.55,202.80 257.08,202.87 257.49,202.39"/>
    </edge>
    <edge id=":1587374656_4" function="internal">
        <lane id=":1587374656_4_0" index="0" disallow="tram rail_urban rail rail_electric rail_fast ship container cable_car subway aircraft wheelchair scooter drone" speed="27.78" length="7.12" shape="254.33,201.45 257.62,207.76"/>
    </edge>
    <edge id=":1587374656_5" function="internal">
        <lane id=":1587374656_5_0" index="0" allow="bicycle" speed="5.43" length="5.87" width="2.00" shape="253.81,201.75 254.63,203.54 254.90,205.01 254.59,206.17 253.73,207.02"/>
    </edge>
    <edge id=":1587374656_6" function="internal">
        <lane id=":1587374656_6_0" index="0" allow="bicycle" speed="5.56" length="5.81" width="1.35" shape="252.70,205.30 254.30,204.60 255.55,204.26 256.58,203.72 257.49,202.39"/>
    </edge>
    <edge id=":1587374656_7" function="internal">
        <lane id=":1587374656_7_0" index="0" allow="bicycle" speed="5.45" length="6.85" width="2.00" shape="252.70,205.30 254.33,204.67 255.78,204.83 257.06,205.77 258.16,207.51"/>
    </edge>
    <edge id=":1587374656_8" function="internal">
        <lane id=":1587374656_8_0" index="0" allow="bicycle" speed="2.89" length="2.92" width="2.00" shape="252.70,205.30 253.60,205.34 254.07,205.64 254.11,206.20 253.73,207.02"/>
    </edge>
    <edge id=":1587374770_0" function="internal">
        <lane id=":1587374770_0_0" index="0" disallow="tram rail_urban rail rail_electric rail_fast ship container cable_car subway aircraft wheelchair scooter drone" speed="3.65" length="4.67" shape="366.14,291.70 366.64,293.06 366.49,293.94 365.70,294.35 364.26,294.29"/>
    </edge>
    <edge id=":1600314560_0" function="internal">
        <lane id=":1600314560_0_0" index="0" allow="pedestrian delivery bicycle" speed="3.90" length="2.56" shape="300.45,143.54 300.20,142.88 299.81,142.46 299.26,142.27 298.56,142.31"/>
    </edge>
    <edge id=":1600314560_1" function="internal">
        <lane id=":1600314560_1_0" index="0" allow="pedestrian delivery bicycle" speed="5.56" length="7.68" shape="297.92,139.18 300.01,139.05 301.66,139.62 302.84,140.89 303.58,142.86"/>
    </edge>
    <edge id=":1600314572_0" function="internal">
        <lane id=":1600314572_0_0" index="0" allow="pedestrian delivery bicycle" speed="4.71" length="7.00" shape="285.35,162.76 284.59,160.61 283.67,159.81 282.59,160.36 281.33,162.26"/>
    </edge>
    <edge id=":1600314572_1" function="internal">
        <lane id=":1600314572_1_0" index="0" allow="pedestrian delivery bicycle" speed="5.56" length="13.80" shape="285.35,162.76 284.39,159.22 283.59,155.86 283.46,152.60 284.54,149.35"/>
    </edge>
    <edge id=":1600314572_2" function="internal">
        <lane id=":1600314572_2_0" index="0" allow="pedestrian delivery bicycle" speed="3.65" length="4.67" shape="285.35,162.76 285.85,161.41 286.53,160.83 287.41,161.04 288.46,162.02"/>
    </edge>
    <edge id=":1600314572_3" function="internal">
        <lane id=":1600314572_3_0" index="0" allow="pedestrian delivery bicycle" speed="5.56" length="11.59" shape="287.32,150.93 286.30,153.81 286.53,156.28 287.45,158.85 288.46,162.02"/>
    </edge>
    <edge id=":1600314572_4" function="internal">
        <lane id=":1600314572_4_0" index="0" allow="pedestrian delivery bicycle" speed="5.56" length="12.82" shape="287.32,150.93 281.33,162.26"/>
    </edge>
    <edge id=":1600314572_5" function="internal">
        <lane id=":1600314572_5_0" index="0" allow="pedestrian delivery bicycle" speed="3.65" length="4.67" shape="287.32,150.93 286.03,151.58 285.14,151.53 284.64,150.79 284.54,149.35"/>
    </edge>
    <edge id=":1600314572_6" function="internal">
        <lane id=":1600314572_6_0" index="0" allow="pedestrian delivery bicycle" speed="5.56" length="12.94" shape="278.49,160.79 284.54,149.35"/>
    </edge>
    <edge id=":1600314572_7" function="internal">
        <lane id=":1600314572_7_0" index="0" allow="pedestrian delivery bicycle" speed="5.56" length="17.38" shape="278.49,160.79 281.61,156.06 284.31,154.69 286.59,156.68 288.46,162.02"/>
    </edge>
    <edge id=":1600314572_8" function="internal">
        <lane id=":1600314572_8_0" index="0" allow="pedestrian delivery bicycle" speed="3.65" length="4.67" shape="278.49,160.79 279.75,160.09 280.65,160.11 281.18,160.83 281.33,162.26"/>
    </edge>
    <edge id=":1600314573_0" function="internal">
        <lane id=":1600314573_0_0" index="0" allow="pedestrian delivery bicycle" speed="3.65" length="4.67" shape="308.01,163.30 307.48,164.65 306.78,165.21 305.92,164.98 304.88,163.98"/>
    </edge>
    <edge id=":1600314608_0" function="internal">
        <lane id=":1600314608_0_0" index="0" allow="pedestrian delivery bicycle" speed="5.56" length="8.41" shape="284.09,220.23 282.59,218.26 281.69,216.78 281.11,215.16 280.56,212.74"/>
    </edge>
    <edge id=":1600314608_1" function="internal">
        <lane id=":1600314608_1_0" index="0" allow="pedestrian delivery bicycle" speed="3.65" length="4.67" shape="284.09,220.23 283.99,218.80 284.37,217.99 285.25,217.81 286.61,218.26"/>
    </edge>
    <edge id=":1600314608_2" function="internal">
        <lane id=":1600314608_2_0" index="0" allow="pedestrian delivery bicycle" speed="4.73" length="5.53" shape="287.70,214.08 286.30,214.72 285.65,215.63 285.75,216.81 286.61,218.26"/>
    </edge>
    <edge id=":1600314608_3" function="internal">
        <lane id=":1600314608_3_0" index="0" allow="pedestrian delivery bicycle" speed="5.56" length="8.10" shape="287.70,214.08 284.83,214.69 282.68,214.67 281.26,214.02 280.56,212.74"/>
    </edge>
    <edge id=":1600314608_4" function="internal">
        <lane id=":1600314608_4_0" index="0" allow="pedestrian delivery bicycle" speed="5.56" length="6.95" shape="283.68,212.08 284.15,214.08 284.63,215.41 285.37,216.63 286.61,218.26"/>
    </edge>
    <edge id=":1600314608_5" function="internal">
        <lane id=":1600314608_5_0" index="0" allow="pedestrian delivery bicycle" speed="3.65" length="4.67" shape="283.68,212.08 283.15,213.42 282.45,213.98 281.59,213.75 280.56,212.74"/>
    </edge>
    <edge id=":1600314610_0" function="internal">
        <lane id=":1600314610_0_0" index="0" allow="pedestrian delivery bicycle" speed="3.65" length="4.67" shape="454.51,214.40 454.39,215.84 453.88,216.58 452.99,216.61 451.71,215.95"/>
    </edge>
    <edge id=":1639720685_0" function="internal">
        <lane id=":1639720685_0_0" index="0" allow="pedestrian delivery bicycle" speed="4.96" length="9.98" shape="175.18,-0.11 175.52,-3.71 175.90,-4.87 176.33,-3.57 176.80,0.17"/>
    </edge>
    <edge id=":1639720685_1" function="internal">
        <lane id=":1639720685_1_0" index="0" allow="pedestrian delivery bicycle" speed="3.65" length="4.67" shape="175.18,-0.11 176.06,-1.25 176.88,-1.60 177.66,-1.14 178.38,0.11"/>
    </edge>
    <edge id=":247473564_0" function="internal">
        <lane id=":247473564_0_0" index="0" disallow="pedestrian tram rail_urban rail rail_electric rail_fast ship container cable_car subway aircraft wheelchair scooter drone" speed="18.30" length="11.39" shape="175.51,164.89 173.60,162.04 171.89,160.28 169.94,158.91 167.30,157.23"/>
    </edge>
    <edge id=":247473564_1" function="internal">
        <lane id=":247473564_1_0" index="0" disallow="pedestrian tram rail_urban rail rail_electric rail_fast ship container cable_car subway aircraft wheelchair scooter drone" speed="13.89" length="11.32" shape="175.51,164.89 173.92,161.83 173.21,159.56 172.76,157.19 171.94,153.80"/>
        <lane id=":247473564_1_1" index="1" disallow="pedestrian tram rail_urban rail rail_electric rail_fast ship container cable_car subway aircraft wheelchair scooter drone" speed="13.89" length="11.32" shape="178.25,163.24 176.78,160.40 176.16,158.28 175.76,156.06 175.01,152.90"/>
    </edge>
    <edge id=":247473565_0" function="internal">
        <lane id=":247473565_0_0" index="0" disallow="pedestrian tram rail_urban rail rail_electric rail_fast ship container cable_car subway aircraft wheelchair scooter drone" speed="13.89" length="16.93" shape="167.14,135.57 170.09,133.61 172.72,131.15 175.50,127.90 178.91,123.58"/>
    </edge>
    <edge id=":247473565_1" function="internal">
        <lane id=":247473565_1_0" index="0" disallow="pedestrian tram rail_urban rail rail_electric rail_fast ship container cable_car subway aircraft wheelchair scooter drone" speed="13.89" length="17.09" shape="171.75,139.11 172.24,134.02 173.45,130.66 175.60,127.64 178.91,123.58"/>
        <lane id=":247473565_1_1" index="1" disallow="pedestrian tram rail_urban rail rail_electric rail_fast ship container cable_car subway aircraft wheelchair scooter drone" speed="13.89" length="17.09" shape="174.89,140.21 175.32,135.43 176.39,132.24 178.35,129.38 181.43,125.55"/>
    </edge>
    <edge id=":247473566_0" function="internal">
        <lane id=":247473566_0_0" index="0" allow="delivery bicycle" speed="9.72" length="5.89" shape="184.32,116.68 185.28,115.27 185.68,114.15 185.79,112.91 185.90,111.16"/>
    </edge>
    <edge id=":247473566_1" function="internal">
        <lane id=":247473566_1_0" index="0" disallow="pedestrian tram rail_urban rail rail_electric rail_fast ship container cable_car subway aircraft wheelchair scooter drone" speed="13.89" length="6.12" shape="184.32,116.68 185.61,115.28 186.71,114.54 187.92,113.92 189.55,112.86"/>
        <lane id=":247473566_1_1" index="1" disallow="pedestrian tram rail_urban rail rail_electric rail_fast ship container cable_car subway aircraft wheelchair scooter drone" speed="13.89" length="6.12" shape="186.84,118.66 187.98,117.45 188.96,116.84 190.03,116.33 191.47,115.42"/>
    </edge>
    <edge id=":247473567_0" function="internal">
        <lane id=":247473567_0_0" index="0" disallow="pedestrian tram rail_urban rail rail_electric rail_fast ship container cable_car subway aircraft wheelchair scooter drone" speed="13.89" length="12.21" shape="201.52,101.73 204.15,103.55 206.38,104.80 208.97,105.66 212.65,106.28"/>
    </edge>
    <edge id=":247473567_1" function="internal">
        <lane id=":247473567_1_0" index="0" disallow="pedestrian tram rail_urban rail rail_electric rail_fast ship container cable_car subway aircraft wheelchair scooter drone" speed="13.89" length="12.25" shape="200.37,108.03 203.95,106.98 206.45,106.27 208.97,106.00 212.65,106.28"/>
        <lane id=":247473567_1_1" index="1" disallow="pedestrian tram rail_urban rail rail_electric rail_fast ship container cable_car subway aircraft wheelchair scooter drone" speed="13.89" length="12.25" shape="200.59,111.28 203.99,110.26 206.36,109.53 208.76,109.22 212.24,109.46"/>
    </edge>
    <edge id=":247473569_0" function="internal">
        <lane id=":247473569_0_0" index="0" disallow="pedestrian tram rail_urban rail rail_electric rail_fast ship container cable_car subway aircraft wheelchair scooter drone" speed="10.53" length="6.26" shape="220.72,107.30 222.52,107.39 223.75,107.12 224.93,106.51 226.57,105.63"/>
    </edge>
    <edge id=":247473569_1" function="internal">
        <lane id=":247473569_1_0" index="0" disallow="pedestrian tram rail_urban rail rail_electric rail_fast ship container cable_car subway aircraft wheelchair scooter drone" speed="13.89" length="6.16" shape="220.72,107.30 222.59,107.69 223.80,108.24 224.97,108.93 226.74,109.77"/>
        <lane id=":247473569_1_1" index="1" disallow="pedestrian tram rail_urban rail rail_electric rail_fast ship container cable_car subway aircraft wheelchair scooter drone" speed="13.89" length="6.16" shape="220.31,110.48 221.95,110.84 223.00,111.35 224.01,111.99 225.55,112.74"/>
    </edge>
    <edge id=":247473572_0" function="internal">
        <lane id=":247473572_0_0" index="0" disallow="pedestrian tram rail_urban rail rail_electric rail_fast ship container cable_car subway aircraft wheelchair scooter drone" speed="17.97" length="12.11" shape="247.03,165.90 245.71,169.34 245.19,171.97 245.18,174.52 245.37,177.71"/>
    </edge>
    <edge id=":247473572_1" function="internal">
        <lane id=":247473572_1_0" index="0" disallow="pedestrian tram rail_urban rail rail_electric rail_fast ship container cable_car subway aircraft wheelchair scooter drone" speed="13.89" length="12.15" shape="247.03,165.90 245.40,169.18 243.94,171.23 242.15,173.06 239.54,175.68"/>
        <lane id=":247473572_1_1" index="1" disallow="pedestrian tram rail_urban rail rail_electric rail_fast ship container cable_car subway aircraft wheelchair scooter drone" speed="13.89" length="12.15" shape="244.11,164.60 242.54,167.70 241.11,169.64 239.37,171.36 236.86,173.84"/>
    </edge>
    <edge id=":247473574_0" function="internal">
        <lane id=":247473574_0_0" index="0" disallow="pedestrian tram rail_urban rail rail_electric rail_fast ship container cable_car subway aircraft wheelchair scooter drone" speed="10.45" length="6.69" shape="227.61,187.71 225.87,186.73 224.63,186.04 223.32,185.71 221.41,185.82"/>
    </edge>
    <edge id=":247473574_1" function="internal">
        <lane id=":247473574_1_0" index="0" disallow="pedestrian tram rail_urban rail rail_electric rail_fast ship container cable_car subway aircraft wheelchair scooter drone" speed="13.89" length="6.65" shape="227.90,183.55 226.08,184.52 224.79,185.10 223.43,185.48 221.41,185.82"/>
        <lane id=":247473574_1_1" index="1" disallow="pedestrian tram rail_urban rail rail_electric rail_fast ship container cable_car subway aircraft wheelchair scooter drone" speed="13.89" length="6.65" shape="226.86,180.48 225.20,181.38 224.03,181.95 222.79,182.33 220.94,182.66"/>
    </edge>
    <edge id=":247473577_0" function="internal">
        <lane id=":247473577_0_0" index="0" disallow="tram rail_urban rail rail_electric rail_fast ship container cable_car subway aircraft wheelchair scooter drone" speed="18.06" length="0.17" shape="269.08,232.44 268.98,232.30"/>
    </edge>
    <edge id=":247473577_1" function="internal">
        <lane id=":247473577_1_0" index="0" disallow="tram rail_urban rail rail_electric rail_fast ship container cable_car subway aircraft wheelchair scooter drone" speed="18.06" length="0.36" shape="271.22,230.04 271.47,230.30"/>
    </edge>
    <edge id=":258972113_0" function="internal">
        <lane id=":258972113_0_0" index="0" disallow="tram rail_urban rail rail_electric rail_fast ship container cable_car subway aircraft wheelchair scooter drone" speed="25.00" length="0.72" shape="85.14,146.89 84.42,146.83"/>
    </edge>
    <edge id=":258972113_1" function="internal">
        <lane id=":258972113_1_0" index="0" disallow="tram rail_urban rail rail_electric rail_fast ship container cable_car subway aircraft wheelchair scooter drone" speed="16.67" length="0.24" shape="84.86,143.66 84.93,143.67 84.98,143.68 85.03,143.68 85.10,143.68"/>
    </edge>
    <edge id=":3794409946_0" function="internal">
        <lane id=":3794409946_0_0" index="0" allow="bicycle" speed="4.01" length="2.66" width="1.35" shape="261.23,203.01 260.74,202.72 260.17,202.67 259.52,202.87 258.80,203.30"/>
    </edge>
    <edge id=":3794409946_1" function="internal">
        <lane id=":3794409946_1_0" index="0" allow="bicycle" speed="5.56" length="6.69" width="1.35" shape="261.67,202.53 260.42,201.16 259.62,199.71 259.25,198.18 259.33,196.58"/>
    </edge>
    <edge id=":3794409946_2" function="internal">
        <lane id=":3794409946_2_0" index="0" allow="pedestrian bicycle" speed="2.89" length="2.92" width="2.00" shape="261.45,202.77 261.23,201.90 261.38,201.36 261.90,201.15 262.79,201.29"/>
    </edge>
    <edge id=":3794409946_3" function="internal">
        <lane id=":3794409946_3_0" index="0" allow="bicycle" speed="5.56" length="5.04" width="1.35" shape="260.66,196.80 260.69,197.75 261.08,198.77 261.86,199.87 263.01,201.05"/>
    </edge>
    <edge id=":3794409946_4" function="internal">
        <lane id=":3794409946_4_0" index="0" allow="bicycle" speed="5.56" length="7.12" width="1.35" shape="260.66,196.80 260.50,198.94 260.53,200.55 260.16,201.91 258.80,203.30"/>
    </edge>
    <edge id=":3794409946_5" function="internal">
        <lane id=":3794409946_5_0" index="0" allow="bicycle" speed="2.37" length="1.97" width="1.35" shape="260.66,196.80 260.25,197.24 259.89,197.35 259.58,197.13 259.33,196.58"/>
    </edge>
    <edge id=":3794409946_6" function="internal">
        <lane id=":3794409946_6_0" index="0" allow="bicycle" speed="5.56" length="5.94" width="1.35" shape="257.57,202.21 258.29,200.61 258.72,199.48 259.01,198.31 259.33,196.58"/>
    </edge>
    <edge id=":3794409946_7" function="internal">
        <lane id=":3794409946_7_0" index="0" allow="bicycle" speed="5.04" length="6.91" width="1.35" shape="257.57,202.21 258.65,200.53 259.92,199.77 261.37,199.95 263.01,201.05"/>
    </edge>
    <edge id=":3794409946_8" function="internal">
        <lane id=":3794409946_8_0" index="0" allow="bicycle" speed="2.72" length="2.39" width="1.35" shape="257.57,202.21 258.28,202.02 258.73,202.14 258.90,202.57 258.80,203.30"/>
    </edge>
    <edge id=":3794409947_0" function="internal">
        <lane id=":3794409947_0_0" index="0" disallow="tram rail_urban rail rail_electric rail_fast ship container cable_car subway aircraft wheelchair scooter drone" speed="20.83" length="7.01" shape="250.97,211.79 246.64,206.27"/>
    </edge>
    <edge id=":3794409947_1" function="internal">
        <lane id=":3794409947_1_0" index="0" allow="bicycle" speed="5.21" length="5.93" width="2.00" shape="251.44,211.42 250.35,209.72 249.92,208.30 250.16,207.15 251.06,206.28"/>
    </edge>
    <edge id=":3794409947_2" function="internal">
        <lane id=":3794409947_2_0" index="0" allow="bicycle" speed="5.85" length="6.73" width="2.00" shape="252.09,208.00 250.48,208.65 248.97,208.64 247.53,207.97 246.17,206.65"/>
    </edge>
    <edge id=":3794409947_3" function="internal">
        <lane id=":3794409947_3_0" index="0" allow="bicycle" speed="2.89" length="2.92" width="2.00" shape="252.09,208.00 251.19,207.95 250.71,207.65 250.67,207.10 251.06,206.28"/>
    </edge>
    <edge id=":4142422137_0" function="internal">
        <lane id=":4142422137_0_0" index="0" allow="pedestrian delivery bicycle" speed="5.56" length="10.49" shape="308.42,244.19 299.69,238.38"/>
    </edge>
    <edge id=":4142422137_1" function="internal">
        <lane id=":4142422137_1_0" index="0" allow="pedestrian delivery bicycle" speed="5.56" length="14.68" shape="308.42,244.19 304.35,241.04 302.91,238.43 304.13,236.35 307.98,234.82"/>
    </edge>
    <edge id=":4142422137_2" function="internal">
        <lane id=":4142422137_2_0" index="0" allow="pedestrian delivery bicycle" speed="3.65" length="4.67" shape="308.42,244.19 307.84,242.88 307.93,241.99 308.69,241.53 310.14,241.49"/>
    </edge>
    <edge id=":4142422137_3" function="internal">
        <lane id=":4142422137_3_0" index="0" allow="pedestrian delivery bicycle" speed="4.55" length="6.14" shape="310.12,237.60 308.46,238.24 307.91,239.11 308.47,240.19 310.14,241.49"/>
    </edge>
    <edge id=":4142422137_4" function="internal">
        <lane id=":4142422137_4_0" index="0" allow="pedestrian delivery bicycle" speed="5.56" length="10.61" shape="310.12,237.60 306.24,238.43 303.21,238.84 301.02,238.83 299.69,238.38"/>
    </edge>
    <edge id=":4142422137_5" function="internal">
        <lane id=":4142422137_5_0" index="0" allow="pedestrian delivery bicycle" speed="3.76" length="5.11" shape="310.12,237.60 308.54,237.70 307.66,237.28 307.48,236.32 307.98,234.82"/>
    </edge>
    <edge id=":4142422137_6" function="internal">
        <lane id=":4142422137_6_0" index="0" allow="pedestrian delivery bicycle" speed="5.56" length="6.55" shape="301.56,235.79 302.77,235.91 304.71,235.61 306.68,235.15 307.98,234.82"/>
    </edge>
    <edge id=":4142422137_7" function="internal">
        <lane id=":4142422137_7_0" index="0" allow="pedestrian delivery bicycle" speed="5.56" length="10.30" shape="301.56,235.79 310.14,241.49"/>
    </edge>
    <edge id=":4142422137_8" function="internal">
        <lane id=":4142422137_8_0" index="0" allow="pedestrian delivery bicycle" speed="3.65" length="4.67" shape="301.56,235.79 302.06,237.14 301.92,238.02 301.13,238.43 299.69,238.38"/>
    </edge>
    <edge id=":4142422139_0" function="internal">
        <lane id=":4142422139_0_0" index="0" allow="pedestrian delivery bicycle" speed="5.56" length="5.60" shape="299.32,238.12 294.79,234.82"/>
    </edge>
    <edge id=":4142422139_1" function="internal">
        <lane id=":4142422139_1_0" index="0" allow="pedestrian delivery bicycle" speed="3.65" length="1.44" shape="299.32,238.12 298.81,236.77"/>
    </edge>
    <edge id=":4142422139_4" function="internal">
        <lane id=":4142422139_4_0" index="0" allow="pedestrian delivery bicycle" speed="3.65" length="3.23" shape="298.81,236.77 298.95,235.88 299.74,235.47 301.18,235.52"/>
    </edge>
    <edge id=":4142422139_2" function="internal">
        <lane id=":4142422139_2_0" index="0" allow="pedestrian delivery bicycle" speed="5.56" length="5.56" shape="296.69,232.25 301.18,235.52"/>
    </edge>
    <edge id=":4142422139_3" function="internal">
        <lane id=":4142422139_3_0" index="0" allow="pedestrian delivery bicycle" speed="3.65" length="1.44" shape="296.69,232.25 297.18,233.60"/>
    </edge>
    <edge id=":4142422139_5" function="internal">
        <lane id=":4142422139_5_0" index="0" allow="pedestrian delivery bicycle" speed="3.65" length="3.23" shape="297.18,233.60 297.03,234.48 296.23,234.89 294.79,234.82"/>
    </edge>
    <edge id=":4142422179_0" function="internal">
        <lane id=":4142422179_0_0" index="0" allow="pedestrian delivery bicycle" speed="5.56" length="5.01" shape="295.60,199.08 296.77,203.95"/>
    </edge>
    <edge id=":428104884_0" function="internal">
        <lane id=":428104884_0_0" index="0" disallow="tram rail_urban rail rail_electric rail_fast ship container cable_car subway aircraft wheelchair scooter drone" speed="16.67" length="0.10" shape="181.72,66.70 181.72,66.70"/>
    </edge>
    <edge id=":7041031795_0" function="internal">
        <lane id=":7041031795_0_0" index="0" allow="pedestrian bicycle" speed="5.56" length="9.92" width="2.00" shape="307.51,255.11 304.84,253.96 303.19,252.82 301.65,251.45 299.32,249.64"/>
    </edge>
    <edge id=":7041031795_1" function="internal">
        <lane id=":7041031795_1_0" index="0" allow="pedestrian bicycle" speed="2.89" length="2.54" width="2.00" shape="307.51,255.11 306.96,254.39 306.89,253.83 307.29,253.44 307.80,253.31"/>
    </edge>
    <edge id=":7041031795_4" function="internal">
        <lane id=":7041031795_4_0" index="0" allow="pedestrian bicycle" speed="2.89" length="0.38" width="2.00" shape="307.80,253.31 308.17,253.22"/>
    </edge>
    <edge id=":7041031795_2" function="internal">
        <lane id=":7041031795_2_0" index="0" allow="pedestrian bicycle" speed="5.56" length="9.62" width="2.00" shape="300.27,247.87 302.52,249.63 304.00,250.97 305.58,252.10 308.17,253.22"/>
    </edge>
    <edge id=":7041031795_3" function="internal">
        <lane id=":7041031795_3_0" index="0" allow="pedestrian bicycle" speed="2.89" length="2.74" width="2.00" shape="300.27,247.87 300.70,248.67 300.68,249.23 300.22,249.56 299.52,249.62"/>
    </edge>
    <edge id=":7041031795_5" function="internal">
        <lane id=":7041031795_5_0" index="0" allow="pedestrian bicycle" speed="2.89" length="0.20" width="2.00" shape="299.52,249.62 299.32,249.64"/>
    </edge>
    <edge id=":727410889_0" function="internal">
        <lane id=":727410889_0_0" index="0" disallow="pedestrian tram rail_urban rail rail_electric rail_fast ship container cable_car subway aircraft wheelchair scooter drone" speed="13.89" length="11.49" shape="254.88,133.20 253.40,135.95 252.52,138.17 252.07,140.63 251.89,144.11"/>
    </edge>
    <edge id=":727410889_1" function="internal">
        <lane id=":727410889_1_0" index="0" disallow="pedestrian tram rail_urban rail rail_electric rail_fast ship container cable_car subway aircraft wheelchair scooter drone" speed="13.89" length="11.38" shape="249.30,132.70 250.30,136.06 251.15,138.34 251.73,140.66 251.89,144.11"/>
        <lane id=":727410889_1_1" index="1" disallow="pedestrian tram rail_urban rail rail_electric rail_fast ship container cable_car subway aircraft wheelchair scooter drone" speed="13.89" length="11.38" shape="246.19,133.44 247.13,136.56 247.96,138.68 248.53,140.83 248.69,144.03"/>
    </edge>
    <edge id=":7816010270_0" function="internal">
        <lane id=":7816010270_0_0" index="0" allow="pedestrian delivery bicycle" speed="5.56" length="9.68" shape="185.93,110.84 186.01,108.00 185.69,106.06 185.13,104.14 184.46,101.34"/>
    </edge>
    <edge id=":7816010270_1" function="internal">
        <lane id=":7816010270_1_0" index="0" allow="bicycle" speed="5.56" length="9.40" width="2.00" shape="186.53,110.89 187.07,107.01 187.86,104.49 188.89,103.35 190.17,103.57"/>
    </edge>
    <edge id=":7816010270_2" function="internal">
        <lane id=":7816010270_2_0" index="0" allow="bicycle" speed="5.56" length="3.65" width="2.00" shape="188.19,100.63 188.45,101.53 188.87,102.31 189.44,103.00 190.17,103.57"/>
    </edge>
    <edge id=":7816010270_3" function="internal">
        <lane id=":7816010270_3_0" index="0" allow="pedestrian delivery bicycle" speed="3.65" length="4.67" shape="187.60,100.74 187.04,102.07 186.33,102.61 185.47,102.37 184.46,101.34"/>
    </edge>
    <edge id=":8358522381_0" function="internal">