<?xml version="1.0" encoding="UTF-8"?>

<!-- generated on 2024-09-03 01:37:57 by Eclipse SUMO netconvert Version 1.20.0
<configuration xmlns:xsi="http://www.w3.org/2001/XMLSchema-instance" xsi:noNamespaceSchemaLocation="http://sumo.dlr.de/xsd/netconvertConfiguration.xsd">

    <input>
        <osm-files value="train_files/roundabout/middle/osm_files/map(69).osm"/>
    </input>

    <output>
        <output-file value="train_files/roundabout/middle/outputs/map(69)_dict/map(69)/map(69).net.xml"/>
    </output>

    <projection>
        <proj.utm value="true"/>
    </projection>

    <building_defaults>
        <default.junctions.keep-clear value="false"/>
    </building_defaults>

</configuration>
-->

<net version="1.20" junctionCornerDetail="5" limitTurnSpeed="5.50" xmlns:xsi="http://www.w3.org/2001/XMLSchema-instance" xsi:noNamespaceSchemaLocation="http://sumo.dlr.de/xsd/net_file.xsd">

    <location netOffset="-399364.22,-5404198.25" convBoundary="0.00,0.00,3343.03,1427.75" origBoundary="1.629824,48.782902,1.675206,48.796011" projParameter="+proj=utm +zone=31 +ellps=WGS84 +datum=WGS84 +units=m +no_defs"/>

    <type id="highway.primary" priority="12" numLanes="2" speed="27.78" disallow="tram rail_urban rail rail_electric rail_fast ship container cable_car subway aircraft wheelchair scooter drone" oneway="0"/>
    <type id="highway.trunk" priority="13" numLanes="2" speed="27.78" disallow="pedestrian bicycle tram rail_urban rail rail_electric rail_fast ship container cable_car subway aircraft wheelchair scooter drone" oneway="0"/>
    <type id="highway.trunk_link" priority="8" numLanes="1" speed="22.22" disallow="pedestrian bicycle tram rail_urban rail rail_electric rail_fast ship container cable_car subway aircraft wheelchair scooter drone" oneway="0"/>
    <type id="highway.unclassified" priority="4" numLanes="1" speed="13.89" disallow="tram rail_urban rail rail_electric rail_fast ship container cable_car subway aircraft wheelchair scooter drone" oneway="0"/>

    <edge id=":1343797777_0" function="internal">
        <lane id=":1343797777_0_0" index="0" disallow="pedestrian bicycle tram rail_urban rail rail_electric rail_fast ship container cable_car subway aircraft wheelchair scooter drone" speed="16.67" length="0.10" shape="134.84,978.27 134.84,978.27"/>
    </edge>
    <edge id=":1343797814_0" function="internal">
        <lane id=":1343797814_0_0" index="0" disallow="pedestrian bicycle tram rail_urban rail rail_electric rail_fast ship container cable_car subway aircraft wheelchair scooter drone" speed="8.33" length="7.28" shape="282.60,938.06 280.51,937.48 279.00,937.16 277.54,937.27 275.56,937.99"/>
    </edge>
    <edge id=":1343797814_1" function="internal">
        <lane id=":1343797814_1_0" index="0" disallow="tram rail_urban rail rail_electric rail_fast ship container cable_car subway aircraft wheelchair scooter drone" speed="8.33" length="7.20" shape="281.65,933.84 279.99,935.28 278.82,936.25 277.54,937.04 275.56,937.99"/>
        <lane id=":1343797814_1_1" index="1" disallow="tram rail_urban rail rail_electric rail_fast ship container cable_car subway aircraft wheelchair scooter drone" speed="8.33" length="7.20" shape="279.94,931.10 278.38,932.47 277.29,933.39 276.11,934.17 274.25,935.07"/>
    </edge>
    <edge id=":1429610806_0" function="internal">
        <lane id=":1429610806_0_0" index="0" disallow="tram rail_urban rail rail_electric rail_fast ship container cable_car subway aircraft wheelchair scooter drone" speed="3.65" length="4.67" shape="1641.47,-1.50 1642.87,-1.16 1643.52,-0.55 1643.42,0.34 1642.57,1.50"/>
    </edge>
    <edge id=":1457699256_0" function="internal">
        <lane id=":1457699256_0_0" index="0" disallow="tram rail_urban rail rail_electric rail_fast ship container cable_car subway aircraft wheelchair scooter drone" speed="25.00" length="0.45" shape="302.01,812.74 301.98,812.80 301.96,812.84 301.94,812.88 301.91,812.94"/>
        <lane id=":1457699256_0_1" index="1" disallow="tram rail_urban rail rail_electric rail_fast ship container cable_car subway aircraft wheelchair scooter drone" speed="25.00" length="0.45" shape="299.27,811.10 299.16,811.27 299.10,811.39 299.04,811.51 298.96,811.70"/>
    </edge>
    <edge id=":1457699256_2" function="internal">
        <lane id=":1457699256_2_0" index="0" disallow="tram rail_urban rail rail_electric rail_fast ship container cable_car subway aircraft wheelchair scooter drone" speed="25.00" length="1.34" shape="293.04,809.19 293.77,807.82"/>
        <lane id=":1457699256_2_1" index="1" disallow="tram rail_urban rail rail_electric rail_fast ship container cable_car subway aircraft wheelchair scooter drone" speed="25.00" length="1.34" shape="295.99,810.44 296.52,809.46"/>
    </edge>
    <edge id=":1771545501_0" function="internal">
        <lane id=":1771545501_0_0" index="0" disallow="tram rail_urban rail rail_electric rail_fast ship container cable_car subway aircraft wheelchair scooter drone" speed="10.74" length="10.89" shape="284.56,863.66 284.37,866.57 284.16,868.71 284.54,870.61 286.11,872.81"/>
        <lane id=":1771545501_0_1" index="1" disallow="tram rail_urban rail rail_electric rail_fast ship container cable_car subway aircraft wheelchair scooter drone" speed="11.93" length="10.89" shape="281.36,863.69 281.20,867.30 281.11,869.93 281.74,872.26 283.78,875.00"/>
    </edge>
    <edge id=":1771545501_2" function="internal">
        <lane id=":1771545501_2_0" index="0" disallow="tram rail_urban rail rail_electric rail_fast ship container cable_car subway aircraft wheelchair scooter drone" speed="8.33" length="11.05" shape="277.42,865.75 280.28,867.46 282.15,868.80 283.82,870.38 286.11,872.81"/>
        <lane id=":1771545501_2_1" index="1" disallow="tram rail_urban rail rail_electric rail_fast ship container cable_car subway aircraft wheelchair scooter drone" speed="8.33" length="11.05" shape="275.40,868.28 278.15,869.91 279.96,871.18 281.57,872.67 283.78,875.00"/>
    </edge>
    <edge id=":2277771923_0" function="internal">
        <lane id=":2277771923_0_0" index="0" disallow="pedestrian bicycle tram rail_urban rail rail_electric rail_fast ship container cable_car subway aircraft wheelchair scooter drone" speed="30.56" length="15.44" shape="790.54,1122.54 793.82,1123.44 796.74,1125.12 800.15,1126.81 804.92,1127.73"/>
    </edge>
    <edge id=":2277771923_1" function="internal">
        <lane id=":2277771923_1_0" index="0" disallow="pedestrian bicycle tram rail_urban rail rail_electric rail_fast ship container cable_car subway aircraft wheelchair scooter drone" speed="30.56" length="15.70" shape="789.30,1126.63 804.92,1127.73"/>
        <lane id=":2277771923_1_1" index="1" disallow="pedestrian bicycle tram rail_urban rail rail_electric rail_fast ship container cable_car subway aircraft wheelchair scooter drone" speed="30.56" length="15.70" shape="789.07,1129.82 804.78,1130.92"/>
    </edge>
    <edge id=":2277771953_0" function="internal">
        <lane id=":2277771953_0_0" index="0" disallow="pedestrian bicycle tram rail_urban rail rail_electric rail_fast ship container cable_car subway aircraft wheelchair scooter drone" speed="11.11" length="0.21" shape="229.11,1019.54 229.17,1019.57 229.21,1019.59 229.25,1019.60 229.31,1019.62"/>
    </edge>
    <edge id=":257574045_0" function="internal">
        <lane id=":257574045_0_0" index="0" disallow="pedestrian bicycle tram rail_urban rail rail_electric rail_fast ship container cable_car subway aircraft wheelchair scooter drone" speed="16.25" length="12.18" shape="296.88,907.86 296.67,911.54 297.09,914.19 298.02,916.61 299.31,919.55"/>
    </edge>
    <edge id=":257574045_1" function="internal">
        <lane id=":257574045_1_0" index="0" disallow="tram rail_urban rail rail_electric rail_fast ship container cable_car subway aircraft wheelchair scooter drone" speed="8.33" length="12.25" shape="296.88,907.86 296.31,911.50 295.65,913.95 294.66,916.30 293.11,919.67"/>
        <lane id=":257574045_1_1" index="1" disallow="tram rail_urban rail rail_electric rail_fast ship container cable_car subway aircraft wheelchair scooter drone" speed="8.33" length="12.25" shape="293.71,907.45 293.15,910.95 292.48,913.30 291.50,915.55 290.00,918.79"/>
    </edge>
    <edge id=":257574048_0" function="internal">
        <lane id=":257574048_0_0" index="0" disallow="tram rail_urban rail rail_electric rail_fast ship container cable_car subway aircraft wheelchair scooter drone" speed="13.45" length="12.06" shape="222.68,926.83 220.18,924.21 217.96,922.76 215.53,921.93 212.40,921.18"/>
    </edge>
    <edge id=":257574048_1" function="internal">
        <lane id=":257574048_1_0" index="0" disallow="tram rail_urban rail rail_electric rail_fast ship container cable_car subway aircraft wheelchair scooter drone" speed="8.33" length="12.21" shape="222.68,926.83 220.37,923.97 218.94,921.87 217.87,919.58 216.62,916.12"/>
        <lane id=":257574048_1_1" index="1" disallow="tram rail_urban rail rail_electric rail_fast ship container cable_car subway aircraft wheelchair scooter drone" speed="8.33" length="12.21" shape="225.15,924.79 222.93,922.02 221.59,919.97 220.59,917.73 219.40,914.38"/>
    </edge>
    <edge id=":257574049_0" function="internal">
        <lane id=":257574049_0_0" index="0" disallow="tram rail_urban rail rail_electric rail_fast ship container cable_car subway aircraft wheelchair scooter drone" speed="10.96" length="7.31" shape="210.29,905.43 211.78,903.86 212.78,902.69 213.41,901.35 213.82,899.27"/>
    </edge>
    <edge id=":257574049_1" function="internal">
        <lane id=":257574049_1_0" index="0" disallow="tram rail_urban rail rail_electric rail_fast ship container cable_car subway aircraft wheelchair scooter drone" speed="8.33" length="7.32" shape="214.24,906.74 213.93,904.52 213.69,903.00 213.62,901.48 213.82,899.27"/>
        <lane id=":257574049_1_1" index="1" disallow="tram rail_urban rail rail_electric rail_fast ship container cable_car subway aircraft wheelchair scooter drone" speed="8.33" length="7.32" shape="217.46,906.76 217.16,904.66 216.91,903.22 216.82,901.77 216.99,899.68"/>
    </edge>
    <edge id=":257574053_0" function="internal">
        <lane id=":257574053_0_0" index="0" disallow="tram rail_urban rail rail_electric rail_fast ship container cable_car subway aircraft wheelchair scooter drone" speed="9.01" length="8.88" shape="258.74,859.75 260.20,859.55 261.91,858.71 263.86,857.23 266.05,855.12"/>
        <lane id=":257574053_0_1" index="1" disallow="tram rail_urban rail rail_electric rail_fast ship container cable_car subway aircraft wheelchair scooter drone" speed="9.65" length="10.26" shape="258.74,859.75 261.88,859.82 264.53,859.44 266.69,858.61 268.37,857.32"/>
    </edge>
    <edge id=":257574053_2" function="internal">
        <lane id=":257574053_2_0" index="0" disallow="tram rail_urban rail rail_electric rail_fast ship container cable_car subway aircraft wheelchair scooter drone" speed="8.33" length="10.98" shape="258.74,859.75 262.06,860.02 264.33,860.30 266.54,860.87 269.65,862.02"/>
        <lane id=":257574053_2_1" index="1" disallow="tram rail_urban rail rail_electric rail_fast ship container cable_car subway aircraft wheelchair scooter drone" speed="8.33" length="10.98" shape="258.46,862.94 261.64,863.21 263.81,863.49 265.92,864.05 268.90,865.17"/>
    </edge>
    <edge id=":4931546574_0" function="internal">
        <lane id=":4931546574_0_0" index="0" disallow="tram rail_urban rail rail_electric rail_fast ship container cable_car subway aircraft wheelchair scooter drone" speed="3.65" length="4.67" shape="2.00,841.66 1.83,840.23 2.18,839.41 3.05,839.19 4.44,839.59"/>
    </edge>
    <edge id=":4931546577_0" function="internal">
        <lane id=":4931546577_0_0" index="0" disallow="tram rail_urban rail rail_electric rail_fast ship container cable_car subway aircraft wheelchair scooter drone" speed="7.27" length="10.04" shape="200.97,828.36 199.15,826.06 197.14,824.70 194.94,824.29 192.56,824.83"/>
    </edge>
    <edge id=":4931546577_1" function="internal">
        <lane id=":4931546577_1_0" index="0" disallow="tram rail_urban rail rail_electric rail_fast ship container cable_car subway aircraft wheelchair scooter drone" speed="7.69" length="15.00" shape="200.97,828.36 199.27,824.49 199.37,821.22 201.27,818.57 204.98,816.52"/>
    </edge>
    <edge id=":4931546577_2" function="internal">
        <lane id=":4931546577_2_0" index="0" disallow="tram rail_urban rail rail_electric rail_fast ship container cable_car subway aircraft wheelchair scooter drone" speed="3.65" length="4.67" shape="200.97,828.36 201.02,826.92 201.48,826.16 202.37,826.07 203.69,826.67"/>
    </edge>
    <edge id=":4931546577_3" function="internal">
        <lane id=":4931546577_3_0" index="0" disallow="tram rail_urban rail rail_electric rail_fast ship container cable_car subway aircraft wheelchair scooter drone" speed="6.12" length="9.06" shape="206.11,819.52 203.87,820.75 202.72,822.36 202.66,824.33 203.69,826.67"/>
    </edge>
    <edge id=":4931546577_4" function="internal">
        <lane id=":4931546577_4_0" index="0" disallow="tram rail_urban rail rail_electric rail_fast ship container cable_car subway aircraft wheelchair scooter drone" speed="8.33" length="14.56" shape="206.11,819.52 192.56,824.83"/>
    </edge>
    <edge id=":4931546577_5" function="internal">
        <lane id=":4931546577_5_0" index="0" disallow="tram rail_urban rail rail_electric rail_fast ship container cable_car subway aircraft wheelchair scooter drone" speed="3.65" length="4.67" shape="206.11,819.52 204.70,819.19 204.05,818.59 204.14,817.70 204.98,816.52"/>
    </edge>
    <edge id=":4931546577_6" function="internal">
        <lane id=":4931546577_6_0" index="0" disallow="tram rail_urban rail rail_electric rail_fast ship container cable_car subway aircraft wheelchair scooter drone" speed="8.33" length="14.64" shape="191.34,821.87 204.98,816.52"/>
    </edge>
    <edge id=":4931546577_7" function="internal">
        <lane id=":4931546577_7_0" index="0" disallow="tram rail_urban rail rail_electric rail_fast ship container cable_car subway aircraft wheelchair scooter drone" speed="8.33" length="14.59" shape="191.34,821.87 194.91,821.02 198.16,821.54 201.08,823.42 203.69,826.67"/>
    </edge>
    <edge id=":4931546577_8" function="internal">
        <lane id=":4931546577_8_0" index="0" disallow="tram rail_urban rail rail_electric rail_fast ship container cable_car subway aircraft wheelchair scooter drone" speed="3.65" length="4.67" shape="191.34,821.87 192.76,822.15 193.43,822.74 193.36,823.63 192.56,824.83"/>
    </edge>
    <edge id=":4931546578_0" function="internal">
        <lane id=":4931546578_0_0" index="0" disallow="tram rail_urban rail rail_electric rail_fast ship container cable_car subway aircraft wheelchair scooter drone" speed="6.62" length="8.91" shape="226.77,863.71 228.27,865.45 230.06,866.30 232.15,866.27 234.52,865.35"/>
    </edge>
    <edge id=":4931546578_1" function="internal">
        <lane id=":4931546578_1_0" index="0" disallow="tram rail_urban rail rail_electric rail_fast ship container cable_car subway aircraft wheelchair scooter drone" speed="7.76" length="9.72" shape="223.67,874.46 224.95,872.29 225.44,870.05 225.14,867.76 224.05,865.40"/>
    </edge>
    <edge id=":4931546578_2" function="internal">
        <lane id=":4931546578_2_0" index="0" disallow="tram rail_urban rail rail_electric rail_fast ship container cable_car subway aircraft wheelchair scooter drone" speed="8.33" length="14.12" shape="223.67,874.46 226.33,871.15 228.39,869.07 230.81,867.40 234.52,865.35"/>
        <lane id=":4931546578_2_1" index="1" disallow="tram rail_urban rail rail_electric rail_fast ship container cable_car subway aircraft wheelchair scooter drone" speed="8.33" length="14.12" shape="225.94,876.76 228.51,873.56 230.51,871.54 232.85,869.94 236.45,867.95"/>
    </edge>
    <edge id=":6200176846_0" function="internal">
        <lane id=":6200176846_0_0" index="0" disallow="tram rail_urban rail rail_electric rail_fast ship container cable_car subway aircraft wheelchair scooter drone" speed="3.65" length="4.67" shape="322.91,769.30 324.36,769.34 325.12,769.81 325.20,770.70 324.61,772.01"/>
    </edge>
    <edge id=":8963699047_0" function="internal">
        <lane id=":8963699047_0_0" index="0" disallow="tram rail_urban rail rail_electric rail_fast ship container cable_car subway aircraft wheelchair scooter drone" speed="8.33" length="0.47" shape="297.26,897.10 297.30,897.31 297.32,897.45 297.32,897.59 297.33,897.80"/>
        <lane id=":8963699047_0_1" index="1" disallow="tram rail_urban rail rail_electric rail_fast ship container cable_car subway aircraft wheelchair scooter drone" speed="8.33" length="0.47" shape="294.11,897.63 294.12,897.69 294.12,897.74 294.13,897.79 294.13,897.86"/>
    </edge>

    <edge id="-165614698" from="1429610806" to="1457699256" priority="12" type="highway.primary" shape="1642.02,0.00 1545.88,35.25 1482.04,67.94 1270.85,188.82 1115.24,278.67 1044.10,319.75 1020.90,333.37 995.77,348.13 779.39,474.12 727.84,505.05 616.36,569.47 576.31,596.17 534.14,627.49 409.30,725.87 381.06,744.70 374.83,748.83 363.97,755.58 357.59,759.55 323.13,780.66 308.21,793.00 297.70,810.61">
        <lane id="-165614698_0" index="0" disallow="tram rail_urban rail rail_electric rail_fast ship container cable_car subway aircraft wheelchair scooter drone" speed="25.00" length="1573.63" shape="1643.67,4.51 1547.81,39.65 1484.32,72.16 1273.24,192.99 1117.64,282.82 1046.51,323.90 1023.33,337.51 998.19,352.27 781.84,478.25 730.27,509.19 618.90,573.55 579.08,600.10 537.06,631.31 412.12,729.75 383.72,748.69 377.42,752.87 366.51,759.65 360.12,763.63 325.93,784.58 311.91,796.18 302.01,812.74"/>
        <lane id="-165614698_1" index="1" disallow="tram rail_urban rail rail_electric rail_fast ship container cable_car subway aircraft wheelchair scooter drone" speed="25.00" length="1573.63" shape="1642.57,1.50 1546.53,36.72 1482.80,69.34 1271.65,190.21 1116.04,280.05 1044.90,321.13 1021.71,334.75 996.57,349.51 780.21,475.50 728.65,506.43 617.21,570.83 577.23,597.48 535.11,628.76 410.24,727.16 381.95,746.03 375.69,750.18 364.82,756.94 358.43,760.91 324.06,781.97 309.44,794.06 299.27,811.10"/>
        <param key="ref" value="D 983"/>
    </edge>
    <edge id="-502775747" from="4931546574" to="4931546577" priority="4" type="highway.unclassified" shape="3.22,840.63 41.07,885.13 198.15,820.81">
        <lane id="-502775747_0" index="0" disallow="tram rail_urban rail rail_electric rail_fast ship container cable_car subway aircraft wheelchair scooter drone" speed="8.33" length="219.15" shape="4.44,839.59 41.54,883.21 191.34,821.87"/>
    </edge>
    <edge id="-502775748#0" from="4931546577" to="4931546578" priority="4" type="highway.unclassified">
        <lane id="-502775748#0_0" index="0" disallow="tram rail_urban rail rail_electric rail_fast ship container cable_car subway aircraft wheelchair scooter drone" speed="8.33" length="43.65" shape="203.69,826.67 226.77,863.71"/>
    </edge>
    <edge id="-502775748#1" from="6200176846" to="4931546577" priority="4" type="highway.unclassified" shape="323.76,770.65 312.46,777.69 198.15,820.81">
        <lane id="-502775748#1_0" index="0" disallow="tram rail_urban rail rail_electric rail_fast ship container cable_car subway aircraft wheelchair scooter drone" speed="8.33" length="127.90" shape="324.61,772.01 313.17,779.14 206.11,819.52"/>
    </edge>
    <edge id="119678551" from="2277771953" to="1343797814" priority="8" type="highway.trunk_link" spreadType="center" shape="229.21,1019.59 237.25,1021.84 243.13,1023.32 249.21,1024.12 254.36,1024.25 260.63,1023.72 265.76,1022.72 270.87,1020.97 276.17,1018.60 281.35,1015.46 286.14,1012.22 290.22,1008.47 293.87,1004.47 296.92,1000.43 299.53,996.52 302.02,990.93 303.73,985.24 304.72,980.34 305.24,975.95 305.33,969.94 304.64,963.09 303.75,958.15 302.09,953.37 300.41,949.78 298.32,946.65 295.79,943.99 293.11,942.06 290.20,940.41 286.40,939.04 281.84,937.87 274.44,936.74">
        <lane id="119678551_0" index="0" disallow="pedestrian bicycle tram rail_urban rail rail_electric rail_fast ship container cable_car subway aircraft wheelchair scooter drone" speed="8.33" length="151.35" shape="229.31,1019.62 237.25,1021.84 243.13,1023.32 249.21,1024.12 254.36,1024.25 260.63,1023.72 265.76,1022.72 270.87,1020.97 276.17,1018.60 281.35,1015.46 286.14,1012.22 290.22,1008.47 293.87,1004.47 296.92,1000.43 299.53,996.52 302.02,990.93 303.73,985.24 304.72,980.34 305.24,975.95 305.33,969.94 304.64,963.09 303.75,958.15 302.09,953.37 300.41,949.78 298.32,946.65 295.79,943.99 293.11,942.06 290.20,940.41 286.40,939.04 282.60,938.06"/>
    </edge>
    <edge id="1245584975" from="1771545501" to="8963699047" priority="12" type="highway.primary" spreadType="center" shape="283.03,871.86 287.04,876.14 290.37,880.98 292.96,886.23 294.76,891.82 295.72,897.59">
        <lane id="1245584975_0" index="0" disallow="tram rail_urban rail rail_electric rail_fast ship container cable_car subway aircraft wheelchair scooter drone" speed="8.33" length="26.28" shape="286.11,872.81 288.29,875.14 291.75,880.17 294.45,885.63 296.32,891.44 297.26,897.10"/>
        <lane id="1245584975_1" index="1" disallow="tram rail_urban rail rail_electric rail_fast ship container cable_car subway aircraft wheelchair scooter drone" speed="8.33" length="26.28" shape="283.78,875.00 285.79,877.15 288.99,881.79 291.48,886.84 293.20,892.20 294.11,897.63"/>
    </edge>
    <edge id="1245584976" from="257574045" to="1343797814" priority="12" type="highway.primary" spreadType="center" shape="295.08,909.27 293.48,914.96 291.05,920.35 287.85,925.32 283.97,929.77 279.47,933.60 274.44,936.74">
        <lane id="1245584976_0" index="0" disallow="tram rail_urban rail rail_electric rail_fast ship container cable_car subway aircraft wheelchair scooter drone" speed="8.33" length="17.21" shape="293.11,919.67 292.46,921.12 289.14,926.29 285.09,930.91 281.65,933.84"/>
        <lane id="1245584976_1" index="1" disallow="tram rail_urban rail rail_electric rail_fast ship container cable_car subway aircraft wheelchair scooter drone" speed="8.33" length="17.21" shape="290.00,918.79 289.64,919.58 286.57,924.36 282.84,928.63 279.94,931.10"/>
    </edge>
    <edge id="1245584977" from="1343797814" to="257574048" priority="12" type="highway.primary" spreadType="center" shape="274.44,936.74 269.66,938.88 264.63,940.37 259.45,941.21 254.21,941.36 249.00,940.83 243.89,939.63 238.99,937.77 234.36,935.31 230.10,932.25 226.27,928.67 222.95,924.64">
        <lane id="1245584977_0" index="0" disallow="tram rail_urban rail rail_electric rail_fast ship container cable_car subway aircraft wheelchair scooter drone" speed="8.33" length="56.65" shape="275.56,937.99 270.21,940.38 264.99,941.93 259.60,942.81 254.15,942.96 248.73,942.41 243.42,941.17 238.32,939.23 233.52,936.67 229.08,933.49 225.10,929.77 222.68,926.83"/>
        <lane id="1245584977_1" index="1" disallow="tram rail_urban rail rail_electric rail_fast ship container cable_car subway aircraft wheelchair scooter drone" speed="8.33" length="56.65" shape="274.25,935.07 269.10,937.38 264.27,938.81 259.30,939.61 254.26,939.76 249.26,939.25 244.36,938.10 239.65,936.31 235.21,933.95 231.12,931.01 227.44,927.58 225.15,924.79"/>
    </edge>
    <edge id="1245584978" from="257574048" to="257574049" priority="12" type="highway.primary" spreadType="center" shape="222.95,924.64 220.50,920.77 218.50,916.65 216.98,912.33 215.97,907.87 215.47,903.32 215.50,898.73">
        <lane id="1245584978_0" index="0" disallow="tram rail_urban rail rail_electric rail_fast ship container cable_car subway aircraft wheelchair scooter drone" speed="8.33" length="8.80" shape="216.62,916.12 215.44,912.77 214.39,908.13 214.24,906.74"/>
        <lane id="1245584978_1" index="1" disallow="tram rail_urban rail rail_electric rail_fast ship container cable_car subway aircraft wheelchair scooter drone" speed="8.33" length="8.80" shape="219.40,914.38 218.52,911.88 217.55,907.60 217.46,906.76"/>
    </edge>
    <edge id="1245584979" from="257574049" to="4931546578" priority="12" type="highway.primary" spreadType="center" shape="215.50,898.73 216.19,893.47 217.57,888.33 219.61,883.43 222.30,878.83 225.57,874.64 229.36,870.90">
        <lane id="1245584979_0" index="0" disallow="tram rail_urban rail rail_electric rail_fast ship container cable_car subway aircraft wheelchair scooter drone" speed="8.33" length="26.09" shape="213.82,899.27 214.61,893.16 216.05,887.82 218.18,882.71 220.97,877.93 223.67,874.46"/>
        <lane id="1245584979_1" index="1" disallow="tram rail_urban rail rail_electric rail_fast ship container cable_car subway aircraft wheelchair scooter drone" speed="8.33" length="26.09" shape="216.99,899.68 217.76,893.79 219.09,888.85 221.05,884.14 223.63,879.73 225.94,876.76"/>
    </edge>
    <edge id="1245584980" from="4931546578" to="257574053" priority="12" type="highway.primary" spreadType="center" shape="229.36,870.90 234.05,867.42 239.19,864.66 244.68,862.66 250.40,861.49 256.23,861.14 262.05,861.65">
        <lane id="1245584980_0" index="0" disallow="tram rail_urban rail rail_electric rail_fast ship container cable_car subway aircraft wheelchair scooter drone" speed="8.33" length="24.10" shape="234.52,865.35 238.53,863.20 244.25,861.12 250.19,859.90 256.26,859.54 258.74,859.75"/>
        <lane id="1245584980_1" index="1" disallow="tram rail_urban rail rail_electric rail_fast ship container cable_car subway aircraft wheelchair scooter drone" speed="8.33" length="24.10" shape="236.45,867.95 239.84,866.13 245.12,864.20 250.61,863.08 256.21,862.75 258.46,862.94"/>
    </edge>
    <edge id="1245584981" from="257574053" to="1771545501" priority="12" type="highway.primary" spreadType="center" shape="262.05,861.65 267.81,863.01 273.30,865.21 278.41,868.17 283.03,871.86">
        <lane id="1245584981_0" index="0" disallow="tram rail_urban rail rail_electric rail_fast ship container cable_car subway aircraft wheelchair scooter drone" speed="8.33" length="7.93" shape="269.65,862.02 274.00,863.76 277.42,865.75"/>
        <lane id="1245584981_1" index="1" disallow="tram rail_urban rail rail_electric rail_fast ship container cable_car subway aircraft wheelchair scooter drone" speed="8.33" length="7.93" shape="268.90,865.17 272.60,866.65 275.40,868.28"/>
    </edge>
    <edge id="165614698" from="1457699256" to="1429610806" priority="12" type="highway.primary" shape="297.70,810.61 308.21,793.00 323.13,780.66 357.59,759.55 363.97,755.58 374.83,748.83 381.06,744.70 409.30,725.87 534.14,627.49 576.31,596.17 616.36,569.47 727.84,505.05 779.39,474.12 995.77,348.13 1020.90,333.37 1044.10,319.75 1115.24,278.67 1270.85,188.82 1482.04,67.94 1545.88,35.25 1642.02,0.00">
        <lane id="165614698_0" index="0" disallow="tram rail_urban rail rail_electric rail_fast ship container cable_car subway aircraft wheelchair scooter drone" speed="25.00" length="1578.02" shape="293.77,807.82 304.51,789.83 320.33,776.75 355.08,755.46 361.44,751.50 372.23,744.79 378.40,740.70 406.48,721.98 531.22,623.68 573.55,592.25 613.83,565.39 725.40,500.92 776.95,469.99 993.34,343.99 1018.47,329.23 1041.68,315.60 1112.84,274.51 1268.46,184.66 1479.75,63.71 1543.96,30.84 1640.37,-4.51"/>
        <lane id="165614698_1" index="1" disallow="tram rail_urban rail rail_electric rail_fast ship container cable_car subway aircraft wheelchair scooter drone" speed="25.00" length="1578.02" shape="296.52,809.46 306.98,791.95 322.20,779.36 356.76,758.19 363.13,754.22 373.96,747.49 380.17,743.37 408.36,724.57 533.17,626.22 575.39,594.86 615.52,568.11 727.03,503.67 778.58,472.74 994.96,346.75 1020.09,331.99 1043.29,318.37 1114.44,277.28 1270.05,187.44 1481.27,66.53 1545.24,33.78 1641.47,-1.50"/>
        <param key="ref" value="D 983"/>
    </edge>
    <edge id="165614701" from="1457699256" to="1771545501" priority="12" type="highway.primary" spreadType="center" shape="300.73,811.62 284.53,850.04 282.93,860.11 283.03,871.86">
        <lane id="165614701_0" index="0" disallow="tram rail_urban rail rail_electric rail_fast ship container cable_car subway aircraft wheelchair scooter drone" speed="25.00" length="54.70" shape="301.91,812.94 286.08,850.48 284.53,860.23 284.56,863.66"/>
        <lane id="165614701_1" index="1" disallow="tram rail_urban rail rail_electric rail_fast ship container cable_car subway aircraft wheelchair scooter drone" speed="25.00" length="54.70" shape="298.96,811.70 282.98,849.59 281.33,859.99 281.36,863.69"/>
        <param key="ref" value="D 983"/>
    </edge>
    <edge id="218535167#0" from="34963183" to="2277771923" priority="13" type="highway.trunk" spreadType="center" shape="56.44,941.45 79.86,957.32 89.97,963.18 97.38,968.03 132.46,988.71 186.64,1016.57 254.37,1046.48 312.85,1067.80 364.40,1083.24 416.24,1095.15 475.45,1106.84 526.16,1112.77 578.68,1117.07 672.91,1122.24 763.32,1126.34 803.62,1129.27">
        <lane id="218535167#0_0" index="0" disallow="pedestrian bicycle tram rail_urban rail rail_electric rail_fast ship container cable_car subway aircraft wheelchair scooter drone" speed="30.56" length="759.85" shape="64.64,945.08 80.71,955.97 90.81,961.82 98.23,966.67 133.23,987.31 187.33,1015.13 254.96,1044.99 313.35,1066.28 364.81,1081.70 416.58,1093.58 475.70,1105.26 526.32,1111.18 578.79,1115.47 672.99,1120.64 763.41,1124.74 789.30,1126.63"/>
        <lane id="218535167#0_1" index="1" disallow="pedestrian bicycle tram rail_urban rail rail_electric rail_fast ship container cable_car subway aircraft wheelchair scooter drone" speed="30.56" length="759.85" shape="62.85,947.73 79.01,958.68 89.13,964.54 96.54,969.39 131.69,990.11 185.95,1018.02 253.77,1047.96 312.34,1069.32 363.99,1084.79 415.91,1096.71 475.20,1108.42 526.00,1114.36 578.57,1118.66 672.83,1123.84 763.22,1127.94 789.07,1129.82"/>
        <param key="ref" value="N 12"/>
    </edge>