<?xml version="1.0" encoding="UTF-8"?>

<!-- generated on 2024-09-03 01:38:32 by Eclipse SUMO netconvert Version 1.20.0
<configuration xmlns:xsi="http://www.w3.org/2001/XMLSchema-instance" xsi:noNamespaceSchemaLocation="http://sumo.dlr.de/xsd/netconvertConfiguration.xsd">

    <input>
        <osm-files value="train_files/roundabout/hard/osm_files/map(75).osm"/>
    </input>

    <output>
        <output-file value="train_files/roundabout/hard/outputs/map(75)_dict/map(75)/map(75).net.xml"/>
    </output>

    <projection>
        <proj.utm value="true"/>
    </projection>

    <building_defaults>
        <default.junctions.keep-clear value="false"/>
    </building_defaults>

</configuration>
-->

<net version="1.20" junctionCornerDetail="5" limitTurnSpeed="5.50" xmlns:xsi="http://www.w3.org/2001/XMLSchema-instance" xsi:noNamespaceSchemaLocation="http://sumo.dlr.de/xsd/net_file.xsd">

    <location netOffset="-595546.24,-5628220.57" convBoundary="0.00,0.00,390.53,554.88" origBoundary="4.355790,50.797841,4.361353,50.802797" projParameter="+proj=utm +zone=31 +ellps=WGS84 +datum=WGS84 +units=m +no_defs"/>

    <type id="highway.footway" priority="1" numLanes="1" speed="2.78" allow="pedestrian" oneway="1" width="2.00"/>
    <type id="highway.service" priority="1" numLanes="1" speed="5.56" allow="pedestrian delivery bicycle" oneway="0"/>
    <type id="highway.tertiary" priority="10" numLanes="1" speed="22.22" disallow="tram rail_urban rail rail_electric rail_fast ship container cable_car subway aircraft wheelchair scooter drone" oneway="0"/>

    <edge id=":1022778367_0" function="internal">
        <lane id=":1022778367_0_0" index="0" disallow="tram rail_urban rail rail_electric rail_fast ship container cable_car subway aircraft wheelchair scooter drone" speed="8.33" length="5.41" shape="183.77,222.53 179.85,218.81"/>
    </edge>
    <edge id=":1087082365_0" function="internal">
        <lane id=":1087082365_0_0" index="0" disallow="tram rail_urban rail rail_electric rail_fast ship container cable_car subway aircraft wheelchair scooter drone" speed="7.61" length="6.18" shape="203.18,248.10 203.00,246.55 202.49,245.15 201.66,243.89 200.49,242.77"/>
    </edge>
    <edge id=":1087082365_1" function="internal">
        <lane id=":1087082365_1_0" index="0" disallow="tram rail_urban rail rail_electric rail_fast ship container cable_car subway aircraft wheelchair scooter drone" speed="8.33" length="6.33" shape="206.19,245.00 204.35,244.92 203.10,244.60 201.97,243.92 200.49,242.77"/>
    </edge>
    <edge id=":1087082420_0" function="internal">
        <lane id=":1087082420_0_0" index="0" disallow="tram rail_urban rail rail_electric rail_fast ship container cable_car subway aircraft wheelchair scooter drone" speed="8.33" length="6.60" shape="208.69,257.26 208.00,259.03 207.92,260.35 208.10,261.74 208.21,263.71"/>
    </edge>
    <edge id=":1087082420_1" function="internal">
        <lane id=":1087082420_1_0" index="0" disallow="tram rail_urban rail rail_electric rail_fast ship container cable_car subway aircraft wheelchair scooter drone" speed="8.33" length="6.47" shape="205.01,263.65 205.17,261.72 205.34,260.35 205.21,259.05 204.44,257.36"/>
    </edge>
    <edge id=":1087082420_2" function="internal">
        <lane id=":1087082420_2_0" index="0" disallow="tram rail_urban rail rail_electric rail_fast ship container cable_car subway aircraft wheelchair scooter drone" speed="3.65" length="1.44" shape="205.01,263.65 205.83,262.46"/>
    </edge>
    <edge id=":1087082420_3" function="internal">
        <lane id=":1087082420_3_0" index="0" disallow="tram rail_urban rail rail_electric rail_fast ship container cable_car subway aircraft wheelchair scooter drone" speed="3.65" length="3.23" shape="205.83,262.46 206.64,262.08 207.43,262.49 208.21,263.71"/>
    </edge>
    <edge id=":11116449109_0" function="internal">
        <lane id=":11116449109_0_0" index="0" allow="pedestrian delivery bicycle" speed="4.48" length="3.25" shape="208.45,197.43 208.40,198.30 208.39,199.23 208.57,200.01 209.08,200.42"/>
    </edge>
    <edge id=":11116449109_1" function="internal">
        <lane id=":11116449109_1_0" index="0" allow="pedestrian delivery bicycle" speed="4.59" length="3.39" shape="204.28,200.41 204.85,200.00 205.13,199.20 205.23,198.24 205.26,197.36"/>
    </edge>
    <edge id=":11116449109_2" function="internal">
        <lane id=":11116449109_2_0" index="0" disallow="tram rail_urban rail rail_electric rail_fast ship container cable_car subway aircraft wheelchair scooter drone" speed="8.33" length="4.85" shape="204.28,200.41 205.70,200.17 206.69,200.09 207.67,200.17 209.08,200.42"/>
    </edge>
    <edge id=":11116449110_0" function="internal">
        <lane id=":11116449110_0_0" index="0" disallow="tram rail_urban rail rail_electric rail_fast ship container cable_car subway aircraft wheelchair scooter drone" speed="7.79" length="4.46" shape="209.28,200.45 210.47,200.44 211.21,199.94 211.90,199.18 212.97,198.36"/>
    </edge>
    <edge id=":11116449110_1" function="internal">
        <lane id=":11116449110_1_0" index="0" disallow="tram rail_urban rail rail_electric rail_fast ship container cable_car subway aircraft wheelchair scooter drone" speed="8.33" length="4.27" shape="209.28,200.45 210.46,200.81 211.19,201.29 211.87,201.87 212.94,202.56"/>
    </edge>
    <edge id=":11116590007_0" function="internal">
        <lane id=":11116590007_0_0" index="0" allow="pedestrian delivery bicycle" speed="5.56" length="5.02" shape="208.62,189.74 208.51,194.76"/>
    </edge>
    <edge id=":11116590007_1" function="internal">
        <lane id=":11116590007_1_0" index="0" allow="pedestrian delivery bicycle" speed="3.65" length="1.44" shape="208.62,189.74 207.79,190.92"/>
    </edge>
    <edge id=":11116590007_4" function="internal">
        <lane id=":11116590007_4_0" index="0" allow="pedestrian delivery bicycle" speed="3.65" length="3.23" shape="207.79,190.92 206.99,191.30 206.19,190.88 205.42,189.67"/>
    </edge>
    <edge id=":11116590007_2" function="internal">
        <lane id=":11116590007_2_0" index="0" allow="pedestrian delivery bicycle" speed="5.56" length="5.02" shape="205.31,194.69 205.42,189.67"/>
    </edge>
    <edge id=":11116590007_3" function="internal">
        <lane id=":11116590007_3_0" index="0" allow="pedestrian delivery bicycle" speed="3.65" length="1.44" shape="205.31,194.69 206.14,193.51"/>
    </edge>
    <edge id=":11116590007_5" function="internal">
        <lane id=":11116590007_5_0" index="0" allow="pedestrian delivery bicycle" speed="3.65" length="3.23" shape="206.14,193.51 206.95,193.12 207.74,193.54 208.51,194.76"/>
    </edge>
    <edge id=":11116590011_0" function="internal">
        <lane id=":11116590011_0_0" index="0" disallow="tram rail_urban rail rail_electric rail_fast ship container cable_car subway aircraft wheelchair scooter drone" speed="8.33" length="4.62" shape="251.04,197.78 255.66,197.80"/>
    </edge>
    <edge id=":11116590013_0" function="internal">
        <lane id=":11116590013_0_0" index="0" disallow="tram rail_urban rail rail_electric rail_fast ship container cable_car subway aircraft wheelchair scooter drone" speed="8.33" length="8.14" shape="256.53,202.12 249.74,206.60"/>
    </edge>
    <edge id=":11195522742_0" function="internal">
        <lane id=":11195522742_0_0" index="0" allow="pedestrian delivery bicycle" speed="3.65" length="4.67" shape="143.58,142.53 144.75,143.37 145.13,144.18 144.70,144.97 143.48,145.73"/>
    </edge>
    <edge id=":140095347_0" function="internal">
        <lane id=":140095347_0_0" index="0" disallow="tram rail_urban rail rail_electric rail_fast ship container cable_car subway aircraft wheelchair scooter drone" speed="3.65" length="4.67" shape="201.80,554.92 200.97,556.10 200.16,556.48 199.37,556.06 198.60,554.85"/>
    </edge>
    <edge id=":140314945_0" function="internal">
        <lane id=":140314945_0_0" index="0" disallow="tram rail_urban rail rail_electric rail_fast ship container cable_car subway aircraft wheelchair scooter drone" speed="3.65" length="4.67" shape="-1.60,0.01 -0.81,-1.20 -0.01,-1.60 0.79,-1.20 1.60,-0.01"/>
    </edge>
    <edge id=":169325849_0" function="internal">
        <lane id=":169325849_0_0" index="0" disallow="tram rail_urban rail rail_electric rail_fast ship container cable_car subway aircraft wheelchair scooter drone" speed="8.33" length="0.38" shape="221.06,235.27 221.01,235.37 220.97,235.44 220.93,235.50 220.86,235.59"/>
    </edge>
    <edge id=":169325877_0" function="internal">
        <lane id=":169325877_0_0" index="0" disallow="tram rail_urban rail rail_electric rail_fast ship container cable_car subway aircraft wheelchair scooter drone" speed="8.33" length="3.49" shape="260.64,200.18 259.64,200.45 258.97,200.68 258.33,201.01 257.45,201.55"/>
    </edge>
    <edge id=":169325877_1" function="internal">
        <lane id=":169325877_1_0" index="0" disallow="tram rail_urban rail rail_electric rail_fast ship container cable_car subway aircraft wheelchair scooter drone" speed="3.65" length="4.67" shape="260.64,200.18 259.27,199.71 258.69,199.03 258.87,198.16 259.83,197.08"/>
    </edge>
    <edge id=":169325877_2" function="internal">
        <lane id=":169325877_2_0" index="0" disallow="tram rail_urban rail rail_electric rail_fast ship container cable_car subway aircraft wheelchair scooter drone" speed="8.33" length="4.06" shape="255.86,197.80 257.06,197.76 257.87,197.63 258.67,197.41 259.83,197.08"/>
    </edge>
    <edge id=":31381767_0" function="internal">
        <lane id=":31381767_0_0" index="0" disallow="tram rail_urban rail rail_electric rail_fast ship container cable_car subway aircraft wheelchair scooter drone" speed="8.33" length="6.75" shape="214.43,242.60 212.95,243.88 212.16,245.01 211.73,246.36 211.29,248.31"/>
    </edge>
    <edge id=":31381767_1" function="internal">
        <lane id=":31381767_1_0" index="0" disallow="tram rail_urban rail rail_electric rail_fast ship container cable_car subway aircraft wheelchair scooter drone" speed="8.33" length="6.81" shape="214.43,242.60 212.82,243.82 211.60,244.54 210.26,244.89 208.27,244.99"/>
    </edge>
    <edge id=":31381768_0" function="internal">
        <lane id=":31381768_0_0" index="0" disallow="tram rail_urban rail rail_electric rail_fast ship container cable_car subway aircraft wheelchair scooter drone" speed="8.33" length="5.09" shape="199.42,198.81 200.79,199.47 201.71,200.09 202.66,200.48 204.09,200.44"/>
    </edge>
    <edge id=":31381768_1" function="internal">
        <lane id=":31381768_1_0" index="0" disallow="tram rail_urban rail rail_electric rail_fast ship container cable_car subway aircraft wheelchair scooter drone" speed="8.33" length="5.07" shape="199.92,203.13 201.05,202.13 201.82,201.38 202.68,200.83 204.09,200.44"/>
    </edge>
    <edge id=":31381769_0" function="internal">
        <lane id=":31381769_0_0" index="0" disallow="tram rail_urban rail rail_electric rail_fast ship container cable_car subway aircraft wheelchair scooter drone" speed="8.33" length="7.21" shape="228.74,223.81 227.08,225.16 225.91,226.10 224.98,227.23 224.02,229.10"/>
    </edge>
    <edge id=":31381769_1" function="internal">
        <lane id=":31381769_1_0" index="0" disallow="tram rail_urban rail rail_electric rail_fast ship container cable_car subway aircraft wheelchair scooter drone" speed="8.33" length="7.21" shape="225.03,222.04 225.00,224.18 224.99,225.68 224.75,227.12 224.02,229.10"/>
    </edge>
    <edge id=":31381770_0" function="internal">
        <lane id=":31381770_0_0" index="0" disallow="tram rail_urban rail rail_electric rail_fast ship container cable_car subway aircraft wheelchair scooter drone" speed="8.33" length="7.21" shape="190.44,229.43 189.31,227.64 188.34,226.55 187.20,225.59 185.58,224.19"/>
    </edge>
    <edge id=":31381770_1" function="internal">
        <lane id=":31381770_1_0" index="0" disallow="tram rail_urban rail rail_electric rail_fast ship container cable_car subway aircraft wheelchair scooter drone" speed="8.33" length="7.24" shape="190.44,229.43 189.50,227.55 189.16,226.11 189.22,224.60 189.50,222.47"/>
    </edge>
    <edge id=":31381775_0" function="internal">
        <lane id=":31381775_0_0" index="0" disallow="tram rail_urban rail rail_electric rail_fast ship container cable_car subway aircraft wheelchair scooter drone" speed="3.65" length="4.67" shape="389.18,90.62 390.50,90.04 391.39,90.13 391.85,90.90 391.88,92.34"/>
    </edge>
    <edge id=":31381800_0" function="internal">
        <lane id=":31381800_0_0" index="0" disallow="tram rail_urban rail rail_electric rail_fast ship container cable_car subway aircraft wheelchair scooter drone" speed="8.33" length="10.56" shape="160.90,202.38 158.28,200.82 156.29,199.83 154.24,198.95 151.45,197.69"/>
    </edge>
    <edge id=":31381800_1" function="internal">
        <lane id=":31381800_1_0" index="0" disallow="tram rail_urban rail rail_electric rail_fast ship container cable_car subway aircraft wheelchair scooter drone" speed="8.33" length="5.26" shape="152.82,194.79 154.25,195.41 155.27,195.72 156.33,195.89 157.88,196.14"/>
    </edge>
    <edge id=":31381800_2" function="internal">
        <lane id=":31381800_2_0" index="0" disallow="tram rail_urban rail rail_electric rail_fast ship container cable_car subway aircraft wheelchair scooter drone" speed="3.65" length="4.67" shape="152.82,194.79 153.57,196.03 153.58,196.92 152.88,197.48 151.45,197.69"/>
    </edge>
    <edge id=":333264890_0" function="internal">
        <lane id=":333264890_0_0" index="0" allow="pedestrian delivery bicycle" speed="5.05" length="5.02" shape="213.03,119.78 211.67,119.95 210.70,120.52 210.10,121.49 209.88,122.85"/>
    </edge>
    <edge id=":333264890_1" function="internal">
        <lane id=":333264890_1_0" index="0" allow="pedestrian delivery bicycle" speed="5.56" length="9.40" shape="213.03,119.78 203.63,119.64"/>
    </edge>
    <edge id=":333264890_2" function="internal">
        <lane id=":333264890_2_0" index="0" allow="pedestrian delivery bicycle" speed="3.65" length="4.67" shape="213.03,119.78 211.84,118.96 211.46,118.16 211.87,117.36 213.08,116.58"/>
    </edge>
    <edge id=":333264890_3" function="internal">
        <lane id=":333264890_3_0" index="0" allow="pedestrian delivery bicycle" speed="5.56" length="9.41" shape="203.67,116.44 213.08,116.58"/>
    </edge>
    <edge id=":333264890_4" function="internal">
        <lane id=":333264890_4_0" index="0" allow="pedestrian delivery bicycle" speed="5.56" length="10.19" shape="203.67,116.44 206.43,116.87 208.39,118.09 209.53,120.08 209.88,122.85"/>
    </edge>
    <edge id=":333264890_5" function="internal">
        <lane id=":333264890_5_0" index="0" allow="pedestrian delivery bicycle" speed="3.65" length="4.67" shape="203.67,116.44 204.86,117.26 205.25,118.06 204.84,118.86 203.63,119.64"/>
    </edge>
    <edge id=":333264890_6" function="internal">
        <lane id=":333264890_6_0" index="0" allow="pedestrian delivery bicycle" speed="5.03" length="5.01" shape="206.68,122.79 206.51,121.43 205.94,120.45 204.98,119.85 203.63,119.64"/>
    </edge>
    <edge id=":333264890_7" function="internal">
        <lane id=":333264890_7_0" index="0" allow="pedestrian delivery bicycle" speed="5.56" length="10.17" shape="206.68,122.79 207.12,120.04 208.34,118.08 210.33,116.93 213.08,116.58"/>
    </edge>
    <edge id=":333264890_8" function="internal">
        <lane id=":333264890_8_0" index="0" allow="pedestrian delivery bicycle" speed="3.65" length="4.67" shape="206.68,122.79 207.50,121.61 208.31,121.22 209.10,121.64 209.88,122.85"/>
    </edge>
    <edge id=":333265088_0" function="internal">
        <lane id=":333265088_0_0" index="0" allow="pedestrian delivery bicycle" speed="5.56" length="7.47" shape="213.84,181.48 211.60,182.69 210.00,183.92 209.02,185.17 208.68,186.44"/>
    </edge>
    <edge id=":333265088_1" function="internal">
        <lane id=":333265088_1_0" index="0" allow="pedestrian delivery bicycle" speed="5.56" length="13.70" shape="213.84,181.48 210.50,182.66 207.18,183.06 203.88,182.67 200.61,181.48"/>
    </edge>
    <edge id=":333265088_2" function="internal">
        <lane id=":333265088_2_0" index="0" allow="pedestrian delivery bicycle" speed="5.56" length="12.88" shape="213.84,181.48 210.20,182.62 207.63,182.12 206.12,179.97 205.67,176.19"/>
    </edge>
    <edge id=":333265088_3" function="internal">
        <lane id=":333265088_3_0" index="0" allow="pedestrian delivery bicycle" speed="3.65" length="4.67" shape="213.84,181.48 212.42,181.27 211.72,180.71 211.74,179.82 212.48,178.58"/>
    </edge>
    <edge id=":333265088_4" function="internal">
        <lane id=":333265088_4_0" index="0" allow="pedestrian delivery bicycle" speed="4.70" length="5.69" shape="208.87,176.25 209.07,177.92 209.74,178.87 210.87,179.09 212.48,178.58"/>
    </edge>
    <edge id=":333265088_5" function="internal">
        <lane id=":333265088_5_0" index="0" allow="pedestrian delivery bicycle" speed="5.56" length="10.20" shape="208.87,176.25 208.68,186.44"/>
    </edge>
    <edge id=":333265088_6" function="internal">
        <lane id=":333265088_6_0" index="0" allow="pedestrian delivery bicycle" speed="5.56" length="12.78" shape="208.87,176.25 208.29,180.00 206.72,182.13 204.16,182.62 200.61,181.48"/>
    </edge>
    <edge id=":333265088_7" function="internal">
        <lane id=":333265088_7_0" index="0" allow="pedestrian delivery bicycle" speed="3.65" length="4.67" shape="208.87,176.25 208.05,177.43 207.24,177.82 206.45,177.40 205.67,176.19"/>
    </edge>
    <edge id=":333265088_8" function="internal">
        <lane id=":333265088_8_0" index="0" allow="pedestrian delivery bicycle" speed="4.75" length="5.75" shape="202.00,178.60 203.58,179.10 204.71,178.87 205.41,177.89 205.67,176.19"/>
    </edge>
    <edge id=":333265088_9" function="internal">
        <lane id=":333265088_9_0" index="0" allow="pedestrian delivery bicycle" speed="5.56" length="10.85" shape="202.00,178.60 204.59,179.53 207.20,179.84 209.83,179.53 212.48,178.58"/>
    </edge>
    <edge id=":333265088_10" function="internal">
        <lane id=":333265088_10_0" index="0" allow="pedestrian delivery bicycle" speed="5.56" length="10.87" shape="202.00,178.60 204.95,180.32 207.05,182.20 208.30,184.24 208.68,186.44"/>
    </edge>
    <edge id=":333265088_11" function="internal">
        <lane id=":333265088_11_0" index="0" allow="pedestrian delivery bicycle" speed="3.65" length="4.67" shape="202.00,178.60 202.73,179.84 202.74,180.74 202.03,181.29 200.61,181.48"/>
    </edge>
    <edge id=":333265088_12" function="internal">
        <lane id=":333265088_12_0" index="0" allow="pedestrian delivery bicycle" speed="5.56" length="7.23" shape="205.48,186.38 205.20,185.13 204.29,183.90 202.76,182.68 200.61,181.48"/>
    </edge>
    <edge id=":333265088_13" function="internal">
        <lane id=":333265088_13_0" index="0" allow="pedestrian delivery bicycle" speed="5.56" length="10.20" shape="205.48,186.38 205.67,176.19"/>
    </edge>
    <edge id=":333265088_14" function="internal">
        <lane id=":333265088_14_0" index="0" allow="pedestrian delivery bicycle" speed="5.56" length="11.01" shape="205.48,186.38 205.95,184.19 207.27,182.16 209.45,180.29 212.48,178.58"/>
    </edge>
    <edge id=":333265088_15" function="internal">
        <lane id=":333265088_15_0" index="0" allow="pedestrian delivery bicycle" speed="3.65" length="4.67" shape="205.48,186.38 206.30,185.20 207.11,184.81 207.90,185.23 208.68,186.44"/>
    </edge>
    <edge id=":333265134_0" function="internal">
        <lane id=":333265134_0_0" index="0" allow="pedestrian delivery bicycle" speed="5.56" length="7.35" shape="169.97,166.71 167.99,165.83 166.55,165.43 165.04,165.34 162.86,165.36"/>
    </edge>
    <edge id=":333265134_1" function="internal">
        <lane id=":333265134_1_0" index="0" allow="pedestrian delivery bicycle" speed="5.56" length="9.14" shape="169.97,166.71 168.17,165.49 166.90,163.81 166.16,161.67 165.95,159.08"/>
    </edge>
    <edge id=":333265134_2" function="internal">
        <lane id=":333265134_2_0" index="0" allow="pedestrian delivery bicycle" speed="3.65" length="4.67" shape="169.97,166.71 169.24,165.47 169.22,164.57 169.93,164.03 171.36,163.83"/>
    </edge>
    <edge id=":333265134_3" function="internal">
        <lane id=":333265134_3_0" index="0" allow="pedestrian delivery bicycle" speed="5.56" length="5.48" shape="169.15,159.13 169.26,160.78 169.67,162.10 170.37,163.12 171.36,163.83"/>
    </edge>
    <edge id=":333265134_4" function="internal">
        <lane id=":333265134_4_0" index="0" allow="pedestrian delivery bicycle" speed="5.56" length="10.04" shape="169.15,159.13 168.71,161.84 167.52,163.78 165.57,164.95 162.86,165.36"/>
    </edge>
    <edge id=":333265134_5" function="internal">
        <lane id=":333265134_5_0" index="0" allow="pedestrian delivery bicycle" speed="3.65" length="4.67" shape="169.15,159.13 168.33,160.32 167.52,160.71 166.73,160.29 165.95,159.08"/>
    </edge>
    <edge id=":333265134_6" function="internal">
        <lane id=":333265134_6_0" index="0" allow="pedestrian delivery bicycle" speed="5.07" length="4.97" shape="162.84,162.16 164.18,161.96 165.14,161.38 165.73,160.42 165.95,159.08"/>
    </edge>
    <edge id=":333265134_7" function="internal">
        <lane id=":333265134_7_0" index="0" allow="pedestrian delivery bicycle" speed="5.56" length="8.82" shape="162.84,162.16 165.45,162.14 167.26,162.27 168.99,162.77 171.36,163.83"/>
    </edge>
    <edge id=":333265134_8" function="internal">
        <lane id=":333265134_8_0" index="0" allow="pedestrian delivery bicycle" speed="3.65" length="4.67" shape="162.84,162.16 164.04,162.95 164.45,163.75 164.05,164.55 162.86,165.36"/>
    </edge>
    <edge id=":5419420317_0" function="internal">
        <lane id=":5419420317_0_0" index="0" disallow="tram rail_urban rail rail_electric rail_fast ship container cable_car subway aircraft wheelchair scooter drone" speed="8.33" length="5.16" shape="191.54,198.00 193.07,198.01 194.12,198.05 195.16,198.12 196.69,198.28"/>
    </edge>
    <edge id=":7865862940_0" function="internal">
        <lane id=":7865862940_0_0" index="0" disallow="tram rail_urban rail rail_electric rail_fast ship container cable_car subway aircraft wheelchair scooter drone" speed="8.33" length="0.30" shape="205.96,374.47 205.95,374.77"/>
    </edge>
    <edge id=":7865862940_1" function="internal">
        <lane id=":7865862940_1_0" index="0" disallow="tram rail_urban rail rail_electric rail_fast ship container cable_car subway aircraft wheelchair scooter drone" speed="8.33" length="0.30" shape="202.75,374.70 202.76,374.40"/>
    </edge>
    <edge id=":7865862941_0" function="internal">
        <lane id=":7865862941_0_0" index="0" disallow="tram rail_urban rail rail_electric rail_fast ship container cable_car subway aircraft wheelchair scooter drone" speed="8.33" length="0.30" shape="205.70,386.07 205.70,386.37"/>
    </edge>
    <edge id=":7865862941_1" function="internal">
        <lane id=":7865862941_1_0" index="0" disallow="tram rail_urban rail rail_electric rail_fast ship container cable_car subway aircraft wheelchair scooter drone" speed="8.33" length="0.30" shape="202.50,386.29 202.50,386.00"/>
    </edge>
    <edge id=":7865862942_0" function="internal">
        <lane id=":7865862942_0_0" index="0" disallow="tram rail_urban rail rail_electric rail_fast ship container cable_car subway aircraft wheelchair scooter drone" speed="8.33" length="0.10" shape="205.83,380.42 205.83,380.43"/>
    </edge>
    <edge id=":7865862942_1" function="internal">
        <lane id=":7865862942_1_0" index="0" disallow="tram rail_urban rail rail_electric rail_fast ship container cable_car subway aircraft wheelchair scooter drone" speed="8.33" length="0.10" shape="202.63,380.35 202.63,380.35"/>
    </edge>

    <edge id="-30251089#0" from="11116590007" to="11116449109" priority="1" type="highway.service">
        <lane id="-30251089#0_0" index="0" allow="pedestrian delivery bicycle" speed="5.56" length="2.68" shape="208.51,194.76 208.45,197.43"/>
    </edge>
    <edge id="-30251089#1" from="333265088" to="11116590007" priority="1" type="highway.service" shape="207.15,182.86 207.00,190.71 206.97,192.21">
        <lane id="-30251089#1_0" index="0" allow="pedestrian delivery bicycle" speed="5.56" length="3.30" shape="208.68,186.44 208.62,189.74"/>
    </edge>
    <edge id="-30251089#2" from="333264890" to="333265088" priority="1" type="highway.service">
        <lane id="-30251089#2_0" index="0" allow="pedestrian delivery bicycle" speed="5.56" length="53.40" shape="209.88,122.85 208.87,176.25"/>
    </edge>
    <edge id="-30251100" from="333265088" to="333264890" priority="1" type="highway.service" shape="207.15,182.86 249.35,163.01 248.75,120.78 245.72,118.71 208.37,118.10">
        <lane id="-30251100_0" index="0" allow="pedestrian delivery bicycle" speed="5.56" length="113.87" shape="212.48,178.58 247.74,162.00 247.16,121.64 245.21,120.31 213.03,119.78"/>
    </edge>
    <edge id="-30251108#0" from="333265134" to="333265088" priority="1" type="highway.service">
        <lane id="-30251108#0_0" index="0" allow="pedestrian delivery bicycle" speed="5.56" length="34.01" shape="171.36,163.83 202.00,178.60"/>
    </edge>
    <edge id="-30251108#1" from="333264890" to="333265134" priority="1" type="highway.service" shape="208.37,118.10 168.29,117.56 167.47,163.73">
        <lane id="-30251108#1_0" index="0" allow="pedestrian delivery bicycle" speed="5.56" length="73.73" shape="203.63,119.64 169.86,119.18 169.15,159.13"/>
    </edge>
    <edge id="-449029838" from="31381800" to="140314945" priority="10" type="highway.tertiary" shape="148.49,194.51 130.27,185.88 113.25,176.36 95.02,165.20 83.04,155.43 65.60,136.86 47.08,115.57 33.70,93.54 23.76,68.95 16.87,48.51 5.01,26.63 1.82,18.39 0.04,7.94 0.00,0.00">
        <lane id="-449029838_0" index="0" disallow="tram rail_urban rail rail_electric rail_fast ship container cable_car subway aircraft wheelchair scooter drone" speed="8.33" length="262.16" shape="151.45,197.69 129.54,187.30 112.44,177.74 94.10,166.51 81.95,156.61 64.41,137.93 45.79,116.51 32.27,94.26 22.26,69.51 15.40,49.15 3.55,27.30 0.27,18.81 -1.55,8.08 -1.60,0.01"/>
    </edge>
    <edge id="-804635583" from="31381775" to="169325877" priority="10" type="highway.tertiary" shape="390.53,91.48 381.30,105.94 372.68,118.78 360.18,135.75 345.23,150.72 327.12,165.96 303.64,180.84 273.49,195.20 263.51,197.78">
        <lane id="-804635583_0" index="0" disallow="tram rail_urban rail rail_electric rail_fast ship container cable_car subway aircraft wheelchair scooter drone" speed="8.33" length="174.61" shape="391.88,92.34 382.64,106.81 373.99,119.70 361.40,136.79 346.31,151.90 328.07,167.25 304.41,182.25 274.04,196.71 260.64,200.18"/>
    </edge>
    <edge id="-93670877#0" from="7865862940" to="1087082420" priority="10" type="highway.tertiary">
        <lane id="-93670877#0_0" index="0" disallow="tram rail_urban rail rail_electric rail_fast ship container cable_car subway aircraft wheelchair scooter drone" speed="8.33" length="110.78" shape="202.76,374.40 205.01,263.65"/>
    </edge>
    <edge id="-93670877#1" from="7865862942" to="7865862940" priority="10" type="highway.tertiary">
        <lane id="-93670877#1_0" index="0" disallow="tram rail_urban rail rail_electric rail_fast ship container cable_car subway aircraft wheelchair scooter drone" speed="8.33" length="5.66" shape="202.63,380.35 202.75,374.70"/>
    </edge>
    <edge id="-93670877#2" from="7865862941" to="7865862942" priority="10" type="highway.tertiary">
        <lane id="-93670877#2_0" index="0" disallow="tram rail_urban rail rail_electric rail_fast ship container cable_car subway aircraft wheelchair scooter drone" speed="8.33" length="5.64" shape="202.50,386.00 202.63,380.35"/>
    </edge>
    <edge id="-93670877#3" from="140095347" to="7865862941" priority="10" type="highway.tertiary" shape="200.20,554.88 202.27,462.29 202.39,457.01 204.10,386.18">
        <lane id="-93670877#3_0" index="0" disallow="tram rail_urban rail rail_electric rail_fast ship container cable_car subway aircraft wheelchair scooter drone" speed="8.33" length="168.60" shape="198.60,554.85 200.67,462.25 200.79,456.97 202.50,386.29"/>
    </edge>
    <edge id="-93670878" from="11195522742" to="333265134" priority="1" type="highway.service" shape="143.53,144.13 124.78,143.54 120.56,146.99 117.41,152.43 116.89,158.49 118.90,164.52 122.48,168.85 126.82,171.58 135.09,172.72 140.22,171.79 157.12,163.80 167.47,163.73">
        <lane id="-93670878_0" index="0" allow="pedestrian delivery bicycle" speed="5.56" length="86.47" shape="143.48,145.73 125.33,145.16 121.80,148.05 118.97,152.92 118.51,158.30 120.33,163.73 123.55,167.63 127.38,170.04 135.05,171.10 139.73,170.25 156.76,162.20 162.84,162.16"/>
    </edge>
    <edge id="1155109453" from="31381769" to="169325849" priority="10" type="highway.tertiary" spreadType="center" shape="224.76,227.40 223.25,230.88 220.98,235.44">
        <lane id="1155109453_0" index="0" disallow="tram rail_urban rail rail_electric rail_fast ship container cable_car subway aircraft wheelchair scooter drone" speed="8.33" length="6.85" shape="224.02,229.10 223.25,230.88 221.06,235.27"/>
    </edge>
    <edge id="1198293380#0" from="31381768" to="11116449109" priority="10" type="highway.tertiary" spreadType="center">
        <lane id="1198293380#0_0" index="0" disallow="tram rail_urban rail rail_electric rail_fast ship container cable_car subway aircraft wheelchair scooter drone" speed="8.33" length="0.20" shape="204.09,200.44 204.28,200.41"/>
    </edge>
    <edge id="1198293380#1" from="11116449109" to="11116449110" priority="10" type="highway.tertiary" spreadType="center">