<?xml version="1.0" encoding="UTF-8"?>

<!-- generated on 2024-09-03 01:38:13 by Eclipse SUMO netconvert Version 1.20.0
<configuration xmlns:xsi="http://www.w3.org/2001/XMLSchema-instance" xsi:noNamespaceSchemaLocation="http://sumo.dlr.de/xsd/netconvertConfiguration.xsd">

    <input>
        <osm-files value="train_files/roundabout/hard/osm_files/map(19).osm"/>
    </input>

    <output>
        <output-file value="train_files/roundabout/hard/outputs/map(19)_dict/map(19)/map(19).net.xml"/>
    </output>

    <projection>
        <proj.utm value="true"/>
    </projection>

    <building_defaults>
        <default.junctions.keep-clear value="false"/>
    </building_defaults>

</configuration>
-->

<net version="1.20" junctionCornerDetail="5" limitTurnSpeed="5.50" xmlns:xsi="http://www.w3.org/2001/XMLSchema-instance" xsi:noNamespaceSchemaLocation="http://sumo.dlr.de/xsd/net_file.xsd">

    <location netOffset="-461535.71,-5398730.25" convBoundary="0.00,0.00,575.86,536.82" origBoundary="2.476781,48.740434,2.484649,48.745232" projParameter="+proj=utm +zone=31 +ellps=WGS84 +datum=WGS84 +units=m +no_defs"/>

    <type id="highway.cycleway" priority="1" numLanes="1" speed="5.56" allow="bicycle" oneway="0" width="2.00"/>
    <type id="highway.path" priority="1" numLanes="1" speed="5.56" allow="pedestrian bicycle" oneway="0" width="2.00"/>
    <type id="highway.secondary" priority="11" numLanes="1" speed="27.78" disallow="tram rail_urban rail rail_electric rail_fast ship container cable_car subway aircraft wheelchair scooter drone" oneway="0"/>

    <edge id=":10029187553_0" function="internal">
        <lane id=":10029187553_0_0" index="0" disallow="tram rail_urban rail rail_electric rail_fast ship container cable_car subway aircraft wheelchair scooter drone" speed="3.66" length="4.59" shape="319.34,48.89 320.65,49.44 321.18,50.14 320.95,50.98 319.94,51.98"/>
    </edge>
    <edge id=":11335647599_0" function="internal">
        <lane id=":11335647599_0_0" index="0" allow="bicycle" speed="2.89" length="2.92" width="2.00" shape="502.98,-1.00 503.75,-0.52 504.01,-0.03 503.78,0.48 503.04,1.00"/>
    </edge>
    <edge id=":11335679690_0" function="internal">
        <lane id=":11335679690_0_0" index="0" allow="bicycle" speed="5.56" length="5.09" width="2.00" shape="248.63,57.70 248.04,62.75"/>
    </edge>
    <edge id=":11335679690_1" function="internal">
        <lane id=":11335679690_1_0" index="0" allow="bicycle" speed="2.89" length="2.92" width="2.00" shape="248.63,57.70 248.05,58.38 247.52,58.57 247.05,58.27 246.64,57.47"/>
    </edge>
    <edge id=":11335679690_2" function="internal">
        <lane id=":11335679690_2_0" index="0" allow="bicycle" speed="5.13" length="4.41" width="2.00" shape="243.59,60.17 244.83,59.82 245.75,59.26 246.36,58.47 246.64,57.47"/>
    </edge>
    <edge id=":11335679690_3" function="internal">
        <lane id=":11335679690_3_0" index="0" allow="bicycle" speed="4.90" length="6.28" width="2.00" shape="243.59,60.17 245.73,60.02 247.18,60.40 247.95,61.31 248.04,62.75"/>
    </edge>
    <edge id=":11335679690_4" function="internal">
        <lane id=":11335679690_4_0" index="0" allow="bicycle" speed="5.56" length="5.08" width="2.00" shape="246.05,62.51 246.64,57.47"/>
    </edge>
    <edge id=":11335679690_5" function="internal">
        <lane id=":11335679690_5_0" index="0" allow="bicycle" speed="2.89" length="2.92" width="2.00" shape="246.05,62.51 246.63,61.83 247.16,61.64 247.63,61.94 248.04,62.75"/>
    </edge>
    <edge id=":12007219850_0" function="internal">
        <lane id=":12007219850_0_0" index="0" allow="pedestrian bicycle" speed="5.44" length="5.09" width="2.00" shape="310.14,99.54 309.11,99.50 308.14,99.95 307.22,100.90 306.37,102.33"/>
    </edge>
    <edge id=":12007219850_1" function="internal">
        <lane id=":12007219850_1_0" index="0" disallow="tram rail_urban rail rail_electric rail_fast ship container cable_car subway aircraft wheelchair scooter drone" speed="13.89" length="7.08" shape="310.14,99.54 303.30,97.73"/>
    </edge>
    <edge id=":12007219850_2" function="internal">
        <lane id=":12007219850_2_0" index="0" disallow="tram rail_urban rail rail_electric rail_fast ship container cable_car subway aircraft wheelchair scooter drone" speed="13.89" length="7.08" shape="304.12,94.63 310.96,96.44"/>
    </edge>
    <edge id=":12007219850_3" function="internal">
        <lane id=":12007219850_3_0" index="0" allow="pedestrian bicycle" speed="6.27" length="2.62" width="2.00" shape="304.12,94.63 306.26,95.64 306.40,95.85"/>
    </edge>
    <edge id=":12007219850_7" function="internal">
        <lane id=":12007219850_7_0" index="0" allow="pedestrian bicycle" speed="6.27" length="6.94" width="2.00" shape="306.40,95.85 307.35,97.26 307.39,99.49 306.37,102.33"/>
    </edge>
    <edge id=":12007219850_4" function="internal">
        <lane id=":12007219850_4_0" index="0" allow="pedestrian bicycle" speed="4.46" length="4.71" width="2.00" shape="304.57,101.44 305.05,100.09 304.99,99.02 304.41,98.23 303.30,97.73"/>
    </edge>
    <edge id=":12007219850_5" function="internal">
        <lane id=":12007219850_5_0" index="0" allow="pedestrian bicycle" speed="6.79" length="8.76" width="2.00" shape="304.57,101.44 306.07,98.91 307.63,97.23 309.26,96.41 310.96,96.44"/>
    </edge>
    <edge id=":12007219850_6" function="internal">
        <lane id=":12007219850_6_0" index="0" allow="pedestrian bicycle" speed="2.89" length="2.92" width="2.00" shape="304.57,101.44 305.35,100.99 305.91,100.99 306.25,101.43 306.37,102.33"/>
    </edge>
    <edge id=":2329718467_0" function="internal">
        <lane id=":2329718467_0_0" index="0" disallow="tram rail_urban rail rail_electric rail_fast ship container cable_car subway aircraft wheelchair scooter drone" speed="7.10" length="6.50" shape="274.13,67.33 273.16,68.78 272.64,70.27 272.56,71.82 272.91,73.41"/>
    </edge>
    <edge id=":2329718467_1" function="internal">
        <lane id=":2329718467_1_0" index="0" disallow="tram rail_urban rail rail_electric rail_fast ship container cable_car subway aircraft wheelchair scooter drone" speed="10.32" length="6.80" shape="269.23,67.93 270.80,69.13 271.68,70.20 272.25,71.50 272.91,73.41"/>
    </edge>
    <edge id=":2329718473_0" function="internal">
        <lane id=":2329718473_0_0" index="0" disallow="tram rail_urban rail rail_electric rail_fast ship container cable_car subway aircraft wheelchair scooter drone" speed="13.61" length="10.39" shape="274.60,87.07 271.94,85.72 269.87,85.33 267.66,85.45 264.58,85.65"/>
    </edge>
    <edge id=":2329718473_1" function="internal">
        <lane id=":2329718473_1_0" index="0" disallow="tram rail_urban rail rail_electric rail_fast ship container cable_car subway aircraft wheelchair scooter drone" speed="5.84" length="7.31" shape="273.36,78.57 272.83,79.98 273.14,81.41 274.29,82.87 276.28,84.35"/>
    </edge>
    <edge id=":2329718473_2" function="internal">
        <lane id=":2329718473_2_0" index="0" disallow="tram rail_urban rail rail_electric rail_fast ship container cable_car subway aircraft wheelchair scooter drone" speed="9.89" length="11.63" shape="273.36,78.57 271.03,81.63 268.78,83.83 266.63,85.17 264.58,85.65"/>
    </edge>
    <edge id=":243970518_0" function="internal">
        <lane id=":243970518_0_0" index="0" disallow="tram rail_urban rail rail_electric rail_fast ship container cable_car subway aircraft wheelchair scooter drone" speed="12.23" length="10.06" shape="249.57,68.11 252.38,68.76 254.40,68.60 256.41,67.87 259.21,66.79"/>
    </edge>
    <edge id=":243970518_1" function="internal">
        <lane id=":243970518_1_0" index="0" disallow="tram rail_urban rail rail_electric rail_fast ship container cable_car subway aircraft wheelchair scooter drone" speed="8.89" length="9.07" shape="253.69,78.31 252.59,75.55 251.37,73.44 250.03,71.97 248.57,71.16"/>
    </edge>
    <edge id=":243970518_2" function="internal">
        <lane id=":243970518_2_0" index="0" disallow="tram rail_urban rail rail_electric rail_fast ship container cable_car subway aircraft wheelchair scooter drone" speed="8.10" length="14.56" shape="253.69,78.31 252.94,74.35 253.61,71.11 255.70,68.59 259.21,66.79"/>
    </edge>
    <edge id=":243970768_0" function="internal">
        <lane id=":243970768_0_0" index="0" disallow="tram rail_urban rail rail_electric rail_fast ship container cable_car subway aircraft wheelchair scooter drone" speed="3.65" length="4.67" shape="575.89,157.63 577.08,158.45 577.46,159.25 577.05,160.05 575.84,160.83"/>
    </edge>
    <edge id=":3383066555_0" function="internal">
        <lane id=":3383066555_0_0" index="0" disallow="tram rail_urban rail rail_electric rail_fast ship container cable_car subway aircraft wheelchair scooter drone" speed="3.65" length="4.67" shape="141.66,83.06 140.35,82.45 139.83,81.73 140.10,80.87 141.16,79.90"/>
    </edge>
    <edge id=":7494670609_0" function="internal">
        <lane id=":7494670609_0_0" index="0" allow="bicycle" speed="4.47" length="4.12" width="2.00" shape="248.29,71.70 247.15,71.50 246.27,71.73 245.65,72.39 245.29,73.49"/>
    </edge>
    <edge id=":7494670609_1" function="internal">
        <lane id=":7494670609_1_0" index="0" disallow="tram rail_urban rail rail_electric rail_fast ship container cable_car subway aircraft wheelchair scooter drone" speed="13.89" length="5.87" shape="248.48,71.13 246.82,70.60 245.66,70.32 244.47,70.16 242.74,70.02"/>
    </edge>
    <edge id=":7494670609_2" function="internal">
        <lane id=":7494670609_2_0" index="0" allow="bicycle" speed="6.48" length="0.59" width="2.00" shape="248.66,70.55 248.14,70.27"/>
    </edge>
    <edge id=":7494670609_10" function="internal">
        <lane id=":7494670609_10_0" index="0" allow="bicycle" speed="6.48" length="7.23" width="2.00" shape="248.14,70.27 247.11,69.70 246.12,68.33 245.69,66.43 245.82,64.02"/>
    </edge>
    <edge id=":7494670609_3" function="internal">
        <lane id=":7494670609_3_0" index="0" allow="bicycle" speed="4.72" length="4.08" width="2.00" shape="247.80,64.32 247.77,65.44 248.07,66.35 248.70,67.04 249.66,67.51"/>
    </edge>
    <edge id=":7494670609_4" function="internal">
        <lane id=":7494670609_4_0" index="0" allow="bicycle" speed="5.56" length="9.52" width="2.00" shape="247.80,64.32 247.22,67.07 246.58,68.91 245.92,70.74 245.29,73.49"/>
    </edge>
    <edge id=":7494670609_5" function="internal">
        <lane id=":7494670609_5_0" index="0" allow="bicycle" speed="6.54" length="8.98" width="2.00" shape="247.80,64.32 247.10,67.19 246.02,69.20 244.55,70.34 242.69,70.62"/>
    </edge>
    <edge id=":7494670609_6" function="internal">
        <lane id=":7494670609_6_0" index="0" allow="bicycle" speed="2.89" length="2.92" width="2.00" shape="247.80,64.32 247.19,64.99 246.66,65.16 246.20,64.83 245.82,64.02"/>
    </edge>
    <edge id=":7494670609_7" function="internal">
        <lane id=":7494670609_7_0" index="0" allow="bicycle" speed="4.71" length="4.00" width="2.00" shape="243.03,66.23 244.11,66.16 244.94,65.77 245.51,65.06 245.82,64.02"/>
    </edge>
    <edge id=":7494670609_8" function="internal">
        <lane id=":7494670609_8_0" index="0" disallow="tram rail_urban rail rail_electric rail_fast ship container cable_car subway aircraft wheelchair scooter drone" speed="13.89" length="6.63" shape="242.98,66.83 244.95,66.99 246.28,67.17 247.59,67.49 249.47,68.08"/>
    </edge>
    <edge id=":7494670609_9" function="internal">
        <lane id=":7494670609_9_0" index="0" allow="bicycle" speed="5.78" length="0.52" width="2.00" shape="242.94,67.43 243.43,67.59"/>
    </edge>
    <edge id=":7494670609_11" function="internal">
        <lane id=":7494670609_11_0" index="0" allow="bicycle" speed="5.78" length="6.86" width="2.00" shape="243.43,67.59 244.34,67.90 245.20,69.07 245.52,70.93 245.29,73.49"/>
    </edge>
    <edge id=":7494700026_0" function="internal">
        <lane id=":7494700026_0_0" index="0" disallow="tram rail_urban rail rail_electric rail_fast ship container cable_car subway aircraft wheelchair scooter drone" speed="10.51" length="6.68" shape="262.62,65.97 264.53,65.77 265.77,65.25 266.89,64.38 268.45,63.14"/>
    </edge>
    <edge id=":7494700026_1" function="internal">
        <lane id=":7494700026_1_0" index="0" disallow="tram rail_urban rail rail_electric rail_fast ship container cable_car subway aircraft wheelchair scooter drone" speed="10.40" length="6.76" shape="262.62,65.97 264.61,65.96 266.00,66.13 267.28,66.67 268.95,67.74"/>
    </edge>
    <edge id=":7494700028_0" function="internal">
        <lane id=":7494700028_0_0" index="0" disallow="tram rail_urban rail rail_electric rail_fast ship container cable_car subway aircraft wheelchair scooter drone" speed="13.89" length="1.81" shape="272.39,79.85 273.47,78.41"/>
    </edge>
    <edge id=":7797267303_0" function="internal">
        <lane id=":7797267303_0_0" index="0" allow="pedestrian bicycle" speed="2.89" length="2.92" width="2.00" shape="0.31,537.77 -0.56,537.53 -0.95,537.13 -0.87,536.58 -0.31,535.87"/>
    </edge>

    <edge id="-100212184#0" from="12007219850" to="243970768" priority="11" type="highway.secondary" shape="307.75,97.25 345.91,107.35 380.11,116.65 397.36,121.02 415.50,126.14 418.73,127.10 443.53,133.02 510.38,150.76 536.68,157.08 555.33,158.90 575.86,159.23">
        <lane id="-100212184#0_0" index="0" disallow="tram rail_urban rail rail_electric rail_fast ship container cable_car subway aircraft wheelchair scooter drone" speed="13.89" length="272.63" shape="310.96,96.44 346.33,105.81 380.51,115.10 397.78,119.47 415.94,124.60 419.14,125.55 443.92,131.47 510.77,149.20 536.95,155.50 555.42,157.30 575.89,157.63"/>
        <param key="ref" value="D 136"/>
    </edge>
    <edge id="-100212184#1" from="2329718473" to="12007219850" priority="11" type="highway.secondary" shape="270.55,82.69 276.89,86.60 287.43,91.42 292.68,93.26 307.75,97.25">
        <lane id="-100212184#1_0" index="0" disallow="tram rail_urban rail rail_electric rail_fast ship container cable_car subway aircraft wheelchair scooter drone" speed="13.89" length="29.79" shape="276.28,84.35 277.64,85.19 288.03,89.93 293.15,91.73 304.12,94.63"/>
        <param key="ref" value="D 136"/>
    </edge>
    <edge id="-1222220592" from="243970518" to="7494670609" priority="11" type="highway.secondary">
        <lane id="-1222220592_0" index="0" disallow="tram rail_urban rail rail_electric rail_fast ship container cable_car subway aircraft wheelchair scooter drone" speed="13.89" length="0.10" shape="248.57,71.16 248.48,71.13"/>
        <param key="ref" value="D 136"/>
    </edge>
    <edge id="-1222229696" from="7494670609" to="11335679690" priority="1" type="highway.cycleway" shape="246.12,68.68 247.06,62.49 247.41,59.53">
        <lane id="-1222229696_0" index="0" allow="bicycle" speed="5.56" length="1.52" width="2.00" shape="245.82,64.02 246.05,62.51"/>
    </edge>
    <edge id="-1295790680" from="7797267303" to="12007219850" priority="1" type="highway.path" shape="0.00,536.82 7.34,534.41 47.96,519.68 62.39,510.79 64.90,506.46 60.11,483.54 59.68,452.77 81.14,444.21 107.31,436.43 132.70,422.62 137.30,417.97 137.87,414.02 136.06,411.87 130.28,408.41 106.19,403.59 101.84,401.38 99.73,398.70 99.80,396.63 102.10,395.04 115.66,390.10 123.94,387.00 127.28,383.54 128.37,380.26 126.86,378.11 123.34,376.12 111.53,374.57 100.58,368.83 96.96,365.05 94.24,360.16 94.96,355.75 99.11,350.73 110.72,345.51 124.82,341.76 147.76,342.43 154.87,342.76 168.51,338.12 192.76,320.56 207.87,310.63 216.58,292.50 235.58,254.43 251.73,214.12 253.68,201.68 254.44,196.03 260.02,184.25 265.07,178.34 271.14,170.61 275.39,163.02 307.75,97.25">
        <lane id="-1295790680_0" index="0" allow="pedestrian bicycle" speed="5.56" length="699.46" width="2.00" shape="-0.31,535.87 7.01,533.47 47.52,518.78 61.65,510.07 63.84,506.29 59.11,483.65 58.67,452.10 80.81,443.26 106.92,435.50 132.09,421.82 136.36,417.50 136.82,414.32 135.41,412.65 129.92,409.36 105.86,404.54 101.19,402.17 98.72,399.04 98.81,396.09 101.64,394.15 115.32,389.16 123.38,386.14 126.40,383.01 127.26,380.42 126.18,378.87 123.01,377.09 111.22,375.54 99.97,369.64 96.15,365.65 93.20,360.34 94.01,355.32 98.48,349.91 110.39,344.57 124.71,340.76 147.80,341.43 154.73,341.75 168.05,337.22 192.20,319.74 207.09,309.95 215.69,292.06 234.67,254.02 250.76,213.85 252.69,201.54 253.47,195.74 259.17,183.70 264.30,177.70 270.30,170.06 274.51,162.56 304.57,101.44"/>
    </edge>
    <edge id="-331255102" from="7494670609" to="3383066555" priority="11" type="highway.secondary" shape="246.12,68.68 230.04,67.42 142.59,81.29 141.41,81.48">
        <lane id="-331255102_0" index="0" disallow="tram rail_urban rail rail_electric rail_fast ship container cable_car subway aircraft wheelchair scooter drone" speed="13.89" length="102.21" shape="242.74,70.02 230.10,69.03 142.84,82.87 141.66,83.06"/>
        <param key="ref" value="D 136"/>
    </edge>
    <edge id="-842194068" from="11335679690" to="11335647599" priority="1" type="highway.cycleway" shape="247.41,59.53 248.51,50.10 250.92,43.19 252.98,39.84 260.43,33.99 301.17,27.09 344.65,26.20 349.90,26.10 365.54,18.73 371.93,17.30 390.17,17.57 398.19,17.62 405.93,15.84 425.38,9.89 445.60,5.10 458.27,2.75 474.95,0.88 503.01,0.00">
        <lane id="-842194068_0" index="0" allow="bicycle" speed="5.56" length="276.66" width="2.00" shape="246.64,57.47 247.53,49.87 250.02,42.76 252.22,39.16 260.01,33.04 301.08,26.10 344.63,25.20 349.67,25.10 365.21,17.78 371.83,16.30 390.19,16.57 398.08,16.62 405.67,14.88 425.12,8.92 445.39,4.12 458.12,1.76 474.88,-0.12 502.98,-1.00"/>
    </edge>
    <edge id="100212184#0" from="243970768" to="12007219850" priority="11" type="highway.secondary" shape="575.86,159.23 555.33,158.90 536.68,157.08 510.38,150.76 443.53,133.02 418.73,127.10 415.50,126.14 397.36,121.02 380.11,116.65 345.91,107.35 307.75,97.25">
        <lane id="100212184#0_0" index="0" disallow="tram rail_urban rail rail_electric rail_fast ship container cable_car subway aircraft wheelchair scooter drone" speed="13.89" length="273.40" shape="575.84,160.83 555.24,160.50 536.42,158.66 509.99,152.31 443.14,134.57 418.31,128.65 415.05,127.68 396.95,122.56 379.70,118.19 345.50,108.90 310.14,99.54"/>
        <param key="ref" value="D 136"/>
    </edge>
    <edge id="100212184#1" from="12007219850" to="2329718473" priority="11" type="highway.secondary" shape="307.75,97.25 292.68,93.26 287.43,91.42 276.89,86.60 270.55,82.69">
        <lane id="100212184#1_0" index="0" disallow="tram rail_urban rail rail_electric rail_fast ship container cable_car subway aircraft wheelchair scooter drone" speed="13.89" length="30.73" shape="303.30,97.73 292.21,94.79 286.83,92.90 276.13,88.01 274.60,87.07"/>
        <param key="ref" value="D 136"/>
    </edge>
    <edge id="1095125805" from="7494700026" to="10029187553" priority="11" type="highway.secondary" spreadType="center" shape="264.62,65.93 273.56,59.42 282.41,55.22 311.28,50.16 319.64,48.85">
        <lane id="1095125805_0" index="0" disallow="tram rail_urban rail rail_electric rail_fast ship container cable_car subway aircraft wheelchair scooter drone" speed="13.89" length="53.58" shape="268.45,63.14 273.56,59.42 282.41,55.22 311.28,50.16 319.34,48.89"/>
        <param key="ref" value="D 204"/>
    </edge>
    <edge id="1095125806" from="10029187553" to="2329718467" priority="11" type="highway.secondary" spreadType="center" shape="320.24,51.91 312.01,53.81 282.37,60.98 277.55,63.22 274.05,67.42 272.06,71.03">
        <lane id="1095125806_0" index="0" disallow="tram rail_urban rail rail_electric rail_fast ship container cable_car subway aircraft wheelchair scooter drone" speed="13.89" length="49.30" shape="319.94,51.98 312.01,53.81 282.37,60.98 277.55,63.22 274.13,67.33"/>
        <param key="ref" value="D 204"/>
    </edge>
    <edge id="1222220592" from="7494670609" to="243970518" priority="11" type="highway.secondary">
        <lane id="1222220592_0" index="0" disallow="tram rail_urban rail rail_electric rail_fast ship container cable_car subway aircraft wheelchair scooter drone" speed="13.89" length="0.10" shape="249.47,68.08 249.57,68.11"/>
        <param key="ref" value="D 136"/>
    </edge>
    <edge id="1222229693" from="7494670609" to="8500811128" priority="1" type="highway.cycleway" spreadType="center" shape="246.12,68.68 244.98,75.35 235.57,76.68 230.00,75.36 217.44,74.65 145.22,86.25 144.12,86.36 142.24,86.17 140.75,86.02 105.56,92.24 88.06,95.08 84.39,96.31 82.67,96.70 80.30,96.75 77.47,98.77 75.44,101.82 74.88,103.94 74.98,106.88">
        <lane id="1222229693_0" index="0" allow="bicycle" speed="5.56" length="181.07" width="2.00" shape="245.29,73.49 244.98,75.35 235.57,76.68 230.00,75.36 217.44,74.65 145.22,86.25 144.12,86.36 142.24,86.17 140.75,86.02 105.56,92.24 88.06,95.08 84.39,96.31 82.67,96.70 80.30,96.75 77.47,98.77 75.44,101.82 74.88,103.94 74.98,106.88"/>
    </edge>
    <edge id="1222229696" from="11335679690" to="7494670609" priority="1" type="highway.cycleway" shape="247.41,59.53 247.06,62.49 246.12,68.68">
        <lane id="1222229696_0" index="0" allow="bicycle" speed="5.56" length="1.59" width="2.00" shape="248.04,62.75 247.80,64.32"/>
    </edge>
    <edge id="1222229697" from="11334955365" to="11335679690" priority="1" type="highway.path" spreadType="center" shape="140.72,77.08 235.50,61.51 247.41,59.53">
        <lane id="1222229697_0" index="0" allow="pedestrian bicycle" speed="5.56" length="104.25" width="2.00" shape="140.72,77.08 235.50,61.51 243.59,60.17"/>
    </edge>
    <edge id="1295790680" from="12007219850" to="7797267303" priority="1" type="highway.path" shape="307.75,97.25 275.39,163.02 271.14,170.61 265.07,178.34 260.02,184.25 254.44,196.03 253.68,201.68 251.73,214.12 235.58,254.43 216.58,292.50 207.87,310.63 192.76,320.56 168.51,338.12 154.87,342.76 147.76,342.43 124.82,341.76 110.72,345.51 99.11,350.73 94.96,355.75 94.24,360.16 96.96,365.05 100.58,368.83 111.53,374.57 123.34,376.12 126.86,378.11 128.37,380.26 127.28,383.54 123.94,387.00 115.66,390.10 102.10,395.04 99.80,396.63 99.73,398.70 101.84,401.38 106.19,403.59 130.28,408.41 136.06,411.87 137.87,414.02 137.30,417.97 132.70,422.62 107.31,436.43 81.14,444.21 59.68,452.77 60.11,483.54 64.90,506.46 62.39,510.79 47.96,519.68 7.34,534.41 0.00,536.82">
        <lane id="1295790680_0" index="0" allow="pedestrian bicycle" speed="5.56" length="700.86" width="2.00" shape="306.37,102.33 276.28,163.49 271.97,171.17 265.85,178.97 260.86,184.80 255.41,196.32 254.67,201.82 252.70,214.39 236.49,254.84 217.48,292.94 208.65,311.32 193.33,321.39 168.98,339.01 155.01,343.76 147.73,343.43 124.94,342.76 111.06,346.46 99.73,351.55 95.90,356.18 95.28,359.97 97.77,364.45 101.19,368.02 111.83,373.60 123.66,375.15 127.55,377.35 129.48,380.09 128.15,384.07 124.50,387.86 116.01,391.04 102.56,395.94 100.78,397.16 100.74,398.37 102.49,400.59 106.52,402.63 130.65,407.46 136.72,411.10 138.93,413.72 138.24,418.44 133.31,423.43 107.70,437.36 81.47,445.16 60.69,453.45 61.11,483.43 65.96,506.63 63.13,511.51 48.39,520.59 7.66,535.36 0.31,537.77"/>
    </edge>
    <edge id="224140087#0" from="7494700028" to="2329718473" priority="11" type="highway.secondary" spreadType="center">
        <lane id="224140087#0_0" index="0" disallow="tram rail_urban rail rail_electric rail_fast ship container cable_car subway aircraft wheelchair scooter drone" speed="13.89" length="0.20" shape="273.47,78.41 273.36,78.57"/>
    </edge>
    <edge id="224140087#1" from="2329718473" to="243970518" priority="11" type="highway.secondary" spreadType="center" shape="270.55,82.69 268.05,84.59 265.07,85.64 261.92,85.71 258.91,84.79 256.32,82.98 254.43,80.47 253.42,77.49 253.39,74.35 254.34,71.35">
        <lane id="224140087#1_0" index="0" disallow="tram rail_urban rail rail_electric rail_fast ship container cable_car subway aircraft wheelchair scooter drone" speed="13.89" length="14.39" shape="264.58,85.65 261.92,85.71 258.91,84.79 256.32,82.98 254.43,80.47 253.69,78.31"/>
    </edge>
    <edge id="224140087#2" from="243970518" to="7494700026" priority="11" type="highway.secondary" spreadType="center" shape="254.34,71.35 256.14,68.83 258.61,66.99 261.54,65.99 264.62,65.93">
        <lane id="224140087#2_0" index="0" disallow="tram rail_urban rail rail_electric rail_fast ship container cable_car subway aircraft wheelchair scooter drone" speed="13.89" length="3.54" shape="259.21,66.79 261.54,65.99 262.62,65.97"/>
    </edge>
    <edge id="224140087#3" from="7494700026" to="2329718467" priority="11" type="highway.secondary" spreadType="center" shape="264.62,65.93 267.59,66.81 270.14,68.55 272.06,71.03">
        <lane id="224140087#3_0" index="0" disallow="tram rail_urban rail rail_electric rail_fast ship container cable_car subway aircraft wheelchair scooter drone" speed="13.89" length="0.34" shape="268.95,67.74 269.23,67.93"/>
    </edge>
    <edge id="224140087#4" from="2329718467" to="7494700028" priority="11" type="highway.secondary" spreadType="center" shape="272.06,71.03 273.12,73.97 273.21,77.10 272.32,80.09">
        <lane id="224140087#4_0" index="0" disallow="tram rail_urban rail rail_electric rail_fast ship container cable_car subway aircraft wheelchair scooter drone" speed="13.89" length="6.60" shape="272.91,73.41 273.12,73.97 273.21,77.10 272.39,79.85"/>
    </edge>
    <edge id="331255102" from="3383066555" to="7494670609" priority="11" type="highway.secondary" shape="141.41,81.48 142.59,81.29 230.04,67.42 246.12,68.68">
        <lane id="331255102_0" index="0" disallow="tram rail_urban rail rail_electric rail_fast ship container cable_car subway aircraft wheelchair scooter drone" speed="13.89" length="102.97" shape="141.16,79.90 142.34,79.71 229.98,65.81 242.98,66.83"/>
        <param key="ref" value="D 136"/>
    </edge>
    <edge id="842194068" from="11335647599" to="11335679690" priority="1" type="highway.cycleway" shape="503.01,0.00 474.95,0.88 458.27,2.75 445.60,5.10 425.38,9.89 405.93,15.84 398.19,17.62 390.17,17.57 371.93,17.30 365.54,18.73 349.90,26.10 344.65,26.20 301.17,27.09 260.43,33.99 252.98,39.84 250.92,43.19 248.51,50.10 247.41,59.53">
        <lane id="842194068_0" index="0" allow="bicycle" speed="5.56" length="273.79" width="2.00" shape="503.04,1.00 475.02,1.88 458.42,3.74 445.81,6.08 425.64,10.85 406.19,16.81 398.30,18.62 390.16,18.57 372.03,18.30 365.86,19.68 350.14,27.09 344.67,27.20 301.27,28.09 260.84,34.93 253.73,40.52 251.83,43.62 249.49,50.32 248.63,57.70"/>
    </edge>

    <junction id="10029187553" type="priority" x="319.59" y="50.45" incLanes="1095125805_0" intLanes=":10029187553_0_0" shape="319.58,50.42 320.30,53.54 319.10,47.31 319.59,50.48">
        <request index="0" response="0" foes="0" cont="0"/>
    </junction>
    <junction id="11334955365" type="dead_end" x="140.72" y="77.08" incLanes="" intLanes="" shape="140.88,78.07 140.56,76.09"/>
    <junction id="11335647599" type="priority" x="503.01" y="0.00" incLanes="-842194068_0" intLanes=":11335647599_0_0" shape="503.01,-0.00 502.95,-2.00 503.01,0.00">
        <request index="0" response="0" foes="0" cont="0"/>
    </junction>
    <junction id="11335679690" type="right_before_left" x="247.41" y="59.53" incLanes="842194068_0 1222229697_0 -1222229696_0" intLanes=":11335679690_0_0 :11335679690_1_0 :11335679690_2_0 :11335679690_3_0 :11335679690_4_0 :11335679690_5_0" shape="249.62,57.81 245.65,57.35 245.33,58.22 245.01,58.55 244.59,58.83 244.06,59.04 243.43,59.18 243.76,61.15 244.58,61.18 244.84,61.34 245.01,61.59 245.08,61.95 245.06,62.40 249.03,62.86">
        <request index="0" response="000000" foes="101000" cont="0"/>
        <request index="1" response="010100" foes="010100" cont="0"/>
        <request index="2" response="000000" foes="010010" cont="0"/>
        <request index="3" response="000001" foes="110001" cont="0"/>
        <request index="4" response="001100" foes="001110" cont="0"/>
        <request index="5" response="001001" foes="001001" cont="0"/>
    </junction>
    <junction id="12007219850" type="priority" x="307.75" y="97.25" incLanes="100212184#0_0 -100212184#1_0 -1295790680_0" intLanes=":12007219850_0_0 :12007219850_1_0 :12007219850_2_0 :12007219850_7_0 :12007219850_4_0 :12007219850_5_0 :12007219850_6_0" shape="309.73,101.08 311.37,94.90 304.53,93.09 302.89,99.27 303.62,99.64 303.81,99.90 303.88,100.21 303.84,100.58 303.68,101.00 307.27,102.77 307.99,101.66 308.39,101.31 308.81,101.10 309.26,101.03">
        <request index="0" response="0000000" foes="1001000" cont="0"/>
        <request index="1" response="0000000" foes="0111000" cont="0"/>
        <request index="2" response="0000000" foes="0100000" cont="0"/>
        <request index="3" response="0000011" foes="1100011" cont="1"/>
        <request index="4" response="0000010" foes="0000010" cont="0"/>
        <request index="5" response="0001110" foes="0001110" cont="0"/>
        <request index="6" response="0001001" foes="0001001" cont="0"/>
    </junction>
    <junction id="2329718467" type="priority" x="272.06" y="71.03" incLanes="1095125806_0 224140087#3_0" intLanes=":2329718467_0_0 :2329718467_1_0" shape="271.41,73.95 274.42,72.87 274.17,71.29 274.28,70.49 274.55,69.70 274.97,68.91 275.55,68.12 272.71,66.54 272.04,67.08 271.69,67.20 271.32,67.21 270.94,67.10 270.55,66.89 267.91,68.96 269.71,70.38 270.22,71.02 270.60,71.76 270.97,72.70">
        <request index="0" response="10" foes="10" cont="0"/>
        <request index="1" response="00" foes="01" cont="0"/>
    </junction>
    <junction id="2329718473" type="priority" x="270.55" y="82.69" incLanes="100212184#1_0 224140087#0_0" intLanes=":2329718473_0_0 :2329718473_1_0 :2329718473_2_0" shape="273.76,88.43 277.12,82.98 275.98,77.58 273.33,75.77 263.51,84.07 265.60,87.15 268.23,86.68 269.58,86.79 270.95,87.11 272.35,87.66">
        <request index="0" response="100" foes="100" cont="0"/>
        <request index="1" response="000" foes="000" cont="0"/>
        <request index="2" response="000" foes="001" cont="0"/>
    </junction>