<?xml version="1.0" encoding="UTF-8"?>

<!-- generated on 2024-09-03 01:37:44 by Eclipse SUMO netconvert Version 1.20.0
<configuration xmlns:xsi="http://www.w3.org/2001/XMLSchema-instance" xsi:noNamespaceSchemaLocation="http://sumo.dlr.de/xsd/netconvertConfiguration.xsd">

    <input>
        <osm-files value="train_files/roundabout/middle/osm_files/map(20).osm"/>
    </input>

    <output>
        <output-file value="train_files/roundabout/middle/outputs/map(20)_dict/map(20)/map(20).net.xml"/>
    </output>

    <projection>
        <proj.utm value="true"/>
    </projection>

    <building_defaults>
        <default.junctions.keep-clear value="false"/>
    </building_defaults>

</configuration>
-->

<net version="1.20" junctionCornerDetail="5" limitTurnSpeed="5.50" xmlns:xsi="http://www.w3.org/2001/XMLSchema-instance" xsi:noNamespaceSchemaLocation="http://sumo.dlr.de/xsd/net_file.xsd">

    <location netOffset="-462944.59,-5397251.27" convBoundary="0.00,0.00,915.63,684.47" origBoundary="2.496106,48.727202,2.508532,48.733346" projParameter="+proj=utm +zone=31 +ellps=WGS84 +datum=WGS84 +units=m +no_defs"/>

    <type id="highway.cycleway" priority="1" numLanes="1" speed="5.56" allow="bicycle" oneway="0" width="2.00"/>
    <type id="highway.path" priority="1" numLanes="1" speed="5.56" allow="pedestrian bicycle" oneway="0" width="2.00"/>
    <type id="highway.secondary" priority="11" numLanes="1" speed="27.78" disallow="tram rail_urban rail rail_electric rail_fast ship container cable_car subway aircraft wheelchair scooter drone" oneway="0"/>
    <type id="highway.service" priority="1" numLanes="1" speed="5.56" allow="pedestrian delivery bicycle" oneway="0"/>
    <type id="highway.track" priority="1" numLanes="1" speed="5.56" allow="pedestrian motorcycle moped bicycle" oneway="0"/>

    <edge id=":10732720215_0" function="internal">
        <lane id=":10732720215_0_0" index="0" allow="bicycle" speed="2.89" length="2.92" width="2.00" shape="908.87,511.67 909.45,512.36 909.54,512.91 909.16,513.32 908.30,513.58"/>
    </edge>
    <edge id=":1286951788_0" function="internal">
        <lane id=":1286951788_0_0" index="0" disallow="tram rail_urban rail rail_electric rail_fast ship container cable_car subway aircraft wheelchair scooter drone" speed="3.65" length="4.67" shape="303.92,-0.46 305.03,-1.38 305.91,-1.53 306.56,-0.92 306.98,0.46"/>
    </edge>
    <edge id=":1286954597_0" function="internal">
        <lane id=":1286954597_0_0" index="0" allow="pedestrian delivery bicycle" speed="5.56" length="0.30" shape="202.20,290.49 201.91,290.40"/>
    </edge>
    <edge id=":1286954597_1" function="internal">
        <lane id=":1286954597_1_0" index="0" allow="pedestrian delivery bicycle" speed="5.56" length="0.30" shape="202.86,287.34 203.14,287.43"/>
    </edge>
    <edge id=":1863066673_0" function="internal">
        <lane id=":1863066673_0_0" index="0" allow="pedestrian delivery bicycle" speed="3.65" length="4.67" shape="-0.48,227.58 -1.39,226.45 -1.52,225.57 -0.90,224.93 0.48,224.53"/>
    </edge>
    <edge id=":1906797036_0" function="internal">
        <lane id=":1906797036_0_0" index="0" allow="pedestrian bicycle" speed="2.89" length="2.92" width="2.00" shape="541.95,296.22 542.61,296.83 542.78,297.37 542.45,297.82 541.63,298.20"/>
    </edge>
    <edge id=":243970306_0" function="internal">
        <lane id=":243970306_0_0" index="0" disallow="tram rail_urban rail rail_electric rail_fast ship container cable_car subway aircraft wheelchair scooter drone" speed="8.01" length="6.42" shape="240.04,276.86 240.79,278.69 241.66,280.13 242.65,281.19 243.76,281.87"/>
    </edge>
    <edge id=":243970306_1" function="internal">
        <lane id=":243970306_1_0" index="0" disallow="tram rail_urban rail rail_electric rail_fast ship container cable_car subway aircraft wheelchair scooter drone" speed="27.78" length="6.78" shape="237.16,280.52 239.17,280.68 240.55,280.82 241.89,281.16 243.76,281.87"/>
    </edge>
    <edge id=":243970340_0" function="internal">
        <lane id=":243970340_0_0" index="0" disallow="tram rail_urban rail rail_electric rail_fast ship container cable_car subway aircraft wheelchair scooter drone" speed="20.83" length="14.23" shape="193.91,356.25 189.27,369.70"/>
    </edge>
    <edge id=":243970340_1" function="internal">
        <lane id=":243970340_1_0" index="0" allow="pedestrian motorcycle moped bicycle" speed="8.15" length="4.24" shape="193.91,356.25 191.99,359.67 191.74,359.86"/>
    </edge>
    <edge id=":243970340_8" function="internal">
        <lane id=":243970340_8_0" index="0" allow="pedestrian motorcycle moped bicycle" speed="8.15" length="10.08" shape="191.74,359.86 189.44,361.70 186.26,362.35 182.45,361.62"/>
    </edge>
    <edge id=":243970340_2" function="internal">
        <lane id=":243970340_2_0" index="0" allow="pedestrian motorcycle moped bicycle" speed="6.49" length="9.03" shape="183.50,358.59 185.93,359.07 187.92,358.64 189.48,357.33 190.60,355.12"/>
    </edge>
    <edge id=":243970340_3" function="internal">
        <lane id=":243970340_3_0" index="0" allow="pedestrian motorcycle moped bicycle" speed="8.11" length="14.15" shape="183.50,358.59 186.95,360.36 189.07,362.80 189.84,365.91 189.27,369.70"/>
    </edge>
    <edge id=":243970340_4" function="internal">
        <lane id=":243970340_4_0" index="0" allow="pedestrian motorcycle moped bicycle" speed="3.65" length="4.67" shape="183.50,358.59 184.37,359.74 184.48,360.63 183.84,361.25 182.45,361.62"/>
    </edge>
    <edge id=":243970340_5" function="internal">
        <lane id=":243970340_5_0" index="0" allow="pedestrian motorcycle moped bicycle" speed="6.64" length="9.14" shape="186.21,368.77 186.57,366.34 186.07,364.33 184.69,362.76 182.45,361.62"/>
    </edge>
    <edge id=":243970340_6" function="internal">
        <lane id=":243970340_6_0" index="0" disallow="tram rail_urban rail rail_electric rail_fast ship container cable_car subway aircraft wheelchair scooter drone" speed="20.83" length="14.34" shape="186.21,368.77 190.60,355.12"/>
    </edge>
    <edge id=":243970340_7" function="internal">
        <lane id=":243970340_7_0" index="0" disallow="tram rail_urban rail rail_electric rail_fast ship container cable_car subway aircraft wheelchair scooter drone" speed="3.65" length="1.44" shape="186.21,368.77 187.32,367.86"/>
    </edge>
    <edge id=":243970340_9" function="internal">
        <lane id=":243970340_9_0" index="0" disallow="tram rail_urban rail rail_electric rail_fast ship container cable_car subway aircraft wheelchair scooter drone" speed="3.65" length="3.23" shape="187.32,367.86 188.20,367.70 188.85,368.32 189.27,369.70"/>
    </edge>
    <edge id=":243970343_0" function="internal">
        <lane id=":243970343_0_0" index="0" disallow="tram rail_urban rail rail_electric rail_fast ship container cable_car subway aircraft wheelchair scooter drone" speed="11.72" length="6.92" shape="235.13,318.83 233.13,318.84 231.79,319.22 230.51,319.95 228.71,320.96"/>
    </edge>
    <edge id=":243970343_1" function="internal">
        <lane id=":243970343_1_0" index="0" disallow="tram rail_urban rail rail_electric rail_fast ship container cable_car subway aircraft wheelchair scooter drone" speed="27.78" length="6.95" shape="235.13,318.83 233.09,318.58 231.74,318.20 230.43,317.63 228.53,316.81"/>
    </edge>
    <edge id=":243970393_0" function="internal">
        <lane id=":243970393_0_0" index="0" disallow="tram rail_urban rail rail_electric rail_fast ship container cable_car subway aircraft wheelchair scooter drone" speed="27.78" length="6.92" shape="221.28,310.23 220.25,308.45 219.56,307.21 219.05,305.91 218.50,303.94"/>
    </edge>
    <edge id=":243970393_1" function="internal">
        <lane id=":243970393_1_0" index="0" disallow="tram rail_urban rail rail_electric rail_fast ship container cable_car subway aircraft wheelchair scooter drone" speed="7.97" length="6.52" shape="216.59,309.98 217.66,308.28 218.34,306.71 218.62,305.26 218.50,303.94"/>
    </edge>
    <edge id=":243971180_0" function="internal">
        <lane id=":243971180_0_0" index="0" disallow="tram rail_urban rail rail_electric rail_fast ship container cable_car subway aircraft wheelchair scooter drone" speed="12.90" length="7.11" shape="254.72,291.68 255.84,293.41 256.91,294.36 258.21,295.10 260.05,296.16"/>
    </edge>
    <edge id=":243971180_1" function="internal">
        <lane id=":243971180_1_0" index="0" disallow="tram rail_urban rail rail_electric rail_fast ship container cable_car subway aircraft wheelchair scooter drone" speed="27.78" length="7.13" shape="254.72,291.68 255.64,293.56 256.06,294.95 256.30,296.40 256.65,298.49"/>
    </edge>
    <edge id=":243997508_0" function="internal">
        <lane id=":243997508_0_0" index="0" disallow="tram rail_urban rail rail_electric rail_fast ship container cable_car subway aircraft wheelchair scooter drone" speed="27.78" length="0.20" shape="238.35,218.81 238.29,219.00"/>
    </edge>
    <edge id=":243997508_1" function="internal">
        <lane id=":243997508_1_0" index="0" disallow="tram rail_urban rail rail_electric rail_fast ship container cable_car subway aircraft wheelchair scooter drone" speed="27.78" length="0.36" shape="235.18,218.25 235.29,217.90"/>
    </edge>
    <edge id=":243997509_0" function="internal">
        <lane id=":243997509_0_0" index="0" allow="pedestrian bicycle" speed="4.35" length="4.87" width="2.00" shape="236.91,251.89 235.41,251.85 234.42,252.26 233.96,253.13 234.01,254.45"/>
    </edge>
    <edge id=":243997509_1" function="internal">
        <lane id=":243997509_1_0" index="0" allow="pedestrian bicycle" speed="2.89" length="2.92" width="2.00" shape="236.91,251.89 236.24,251.29 236.07,250.75 236.39,250.30 237.21,249.91"/>
    </edge>
    <edge id=":243997509_2" function="internal">
        <lane id=":243997509_2_0" index="0" allow="pedestrian bicycle" speed="5.32" length="5.33" width="2.00" shape="233.40,246.95 233.58,248.02 234.27,248.87 235.48,249.50 237.21,249.91"/>
    </edge>
    <edge id=":243997509_3" function="internal">
        <lane id=":243997509_3_0" index="0" disallow="tram rail_urban rail rail_electric rail_fast ship container cable_car subway aircraft wheelchair scooter drone" speed="27.78" length="7.57" shape="233.40,246.95 233.28,249.18 233.33,250.72 233.56,252.25 234.01,254.45"/>
    </edge>
    <edge id=":243997516_0" function="internal">
        <lane id=":243997516_0_0" index="0" disallow="tram rail_urban rail rail_electric rail_fast ship container cable_car subway aircraft wheelchair scooter drone" speed="10.16" length="6.62" shape="224.30,285.75 225.51,284.28 226.01,283.04 226.18,281.64 226.38,279.68"/>
    </edge>
    <edge id=":243997516_1" function="internal">
        <lane id=":243997516_1_0" index="0" disallow="tram rail_urban rail rail_electric rail_fast ship container cable_car subway aircraft wheelchair scooter drone" speed="27.78" length="6.68" shape="224.30,285.75 225.73,284.40 226.84,283.62 228.06,282.99 229.83,282.09"/>
    </edge>
    <edge id=":3424455597_0" function="internal">
        <lane id=":3424455597_0_0" index="0" allow="pedestrian motorcycle moped bicycle" speed="3.65" length="4.67" shape="7.29,304.52 6.40,303.39 6.27,302.51 6.90,301.87 8.28,301.48"/>
    </edge>
    <edge id=":3443289994_0" function="internal">
        <lane id=":3443289994_0_0" index="0" disallow="tram rail_urban rail rail_electric rail_fast ship container cable_car subway aircraft wheelchair scooter drone" speed="3.65" length="4.67" shape="88.88,684.96 87.75,685.86 86.87,686.00 86.23,685.37 85.83,683.99"/>
    </edge>
    <edge id=":7425714194_0" function="internal">
        <lane id=":7425714194_0_0" index="0" allow="pedestrian delivery bicycle" speed="5.32" length="4.98" shape="216.65,291.58 218.01,291.82 219.16,291.62 220.11,290.99 220.85,289.93"/>
    </edge>
    <edge id=":7425714194_1" function="internal">
        <lane id=":7425714194_1_0" index="0" allow="pedestrian delivery bicycle" speed="5.55" length="4.74" shape="218.01,298.40 217.85,297.01 217.40,295.92 216.69,295.13 215.71,294.64"/>
    </edge>
    <edge id=":7425714194_2" function="internal">
        <lane id=":7425714194_2_0" index="0" disallow="tram rail_urban rail rail_electric rail_fast ship container cable_car subway aircraft wheelchair scooter drone" speed="15.10" length="9.11" shape="218.01,298.40 218.13,295.76 218.65,293.99 219.55,292.31 220.85,289.93"/>
    </edge>
    <edge id=":8725837797_0" function="internal">
        <lane id=":8725837797_0_0" index="0" allow="bicycle" speed="6.71" length="5.56" width="2.00" shape="251.66,318.34 250.03,317.56 248.61,317.14 247.39,317.07 246.39,317.37"/>
    </edge>
    <edge id=":8725837797_1" function="internal">
        <lane id=":8725837797_1_0" index="0" allow="bicycle" speed="3.81" length="3.10" width="2.00" shape="250.78,314.53 250.62,315.05 251.09,315.62 251.86,316.15 252.63,316.59"/>
    </edge>
    <edge id=":8725837797_2" function="internal">
        <lane id=":8725837797_2_0" index="0" disallow="tram rail_urban rail rail_electric rail_fast ship container cable_car subway aircraft wheelchair scooter drone" speed="27.78" length="5.13" shape="250.40,314.07 249.22,315.02 248.37,315.61 247.46,316.13 246.11,316.83"/>
    </edge>
    <edge id=":8725837798_0" function="internal">
        <lane id=":8725837798_0_0" index="0" disallow="tram rail_urban rail rail_electric rail_fast ship container cable_car subway aircraft wheelchair scooter drone" speed="8.70" length="5.03" shape="255.59,313.72 250.56,313.94"/>
    </edge>
    <edge id=":8725837798_1" function="internal">
        <lane id=":8725837798_1_0" index="0" disallow="tram rail_urban rail rail_electric rail_fast ship container cable_car subway aircraft wheelchair scooter drone" speed="27.78" length="5.07" shape="253.72,310.01 252.84,311.23 252.28,312.11 251.65,312.93 250.56,313.94"/>
    </edge>

    <edge id="-113522345" from="1863066673" to="1286954597" priority="1" type="highway.service" shape="0.00,226.05 29.12,235.30 202.53,288.91">
        <lane id="-113522345_0" index="0" allow="pedestrian delivery bicycle" speed="5.56" length="211.90" shape="0.48,224.53 29.60,233.77 202.86,287.34"/>
    </edge>
    <edge id="-175753709" from="243970340" to="3443289994" priority="11" type="highway.secondary" shape="189.78,362.47 162.13,454.11 132.22,544.00 122.29,575.02 87.35,684.47">
        <lane id="-175753709_0" index="0" disallow="tram rail_urban rail rail_electric rail_fast ship container cable_car subway aircraft wheelchair scooter drone" speed="13.89" length="330.88" shape="189.27,369.70 163.65,454.60 133.74,544.49 123.81,575.51 88.88,684.96"/>
        <param key="ref" value="D 94"/>
    </edge>
    <edge id="-175753772" from="8725837797" to="10732720215" priority="1" type="highway.cycleway" shape="248.63,315.52 259.22,321.37 278.12,326.35 333.62,343.48 354.49,350.24 536.67,407.38 574.25,418.34 737.02,468.53 842.27,500.52 847.01,501.24 852.83,501.10 858.05,500.32 863.82,499.21 908.59,512.62">
        <lane id="-175753772_0" index="0" allow="bicycle" speed="5.56" length="686.36" width="2.00" shape="252.63,316.59 259.59,320.43 278.40,325.38 333.92,342.53 354.79,349.28 536.96,406.43 574.53,417.39 737.32,467.58 842.49,499.55 847.08,500.24 852.74,500.10 857.88,499.34 863.87,498.18 908.87,511.67"/>
    </edge>
    <edge id="-180241631" from="1906797036" to="243997509" priority="1" type="highway.path" shape="541.79,297.21 475.93,286.71 435.06,280.11 391.33,274.39 297.74,260.05 233.17,250.32">
        <lane id="-180241631_0" index="0" allow="pedestrian bicycle" speed="5.56" length="308.23" width="2.00" shape="541.63,298.20 475.78,287.70 434.92,281.10 391.19,275.38 297.59,261.04 236.91,251.89"/>
    </edge>
    <edge id="-22742045" from="243997508" to="1286951788" priority="11" type="highway.secondary" shape="236.77,218.53 241.93,201.06 252.02,169.90 285.07,62.55 302.66,9.32 305.45,0.00">
        <lane id="-22742045_0" index="0" disallow="tram rail_urban rail rail_electric rail_fast ship container cable_car subway aircraft wheelchair scooter drone" speed="27.78" length="228.90" shape="235.29,217.90 240.40,200.58 250.50,169.42 283.54,62.07 301.14,8.84 303.92,-0.46"/>
        <param key="ref" value="D 94"/>
    </edge>
    <edge id="-335325064" from="3424455597" to="243970340" priority="1" type="highway.track" shape="7.79,303.00 178.24,358.46 189.78,362.47">
        <lane id="-335325064_0" index="0" allow="pedestrian motorcycle moped bicycle" speed="5.56" length="184.29" shape="8.28,301.48 178.75,356.95 183.50,358.59"/>
    </edge>
    <edge id="-793849030" from="1286954597" to="7425714194" priority="1" type="highway.service">
        <lane id="-793849030_0" index="0" allow="pedestrian delivery bicycle" speed="5.56" length="14.14" shape="203.14,287.43 216.65,291.58"/>
    </edge>
    <edge id="113522345" from="1286954597" to="1863066673" priority="1" type="highway.service" shape="202.53,288.91 29.12,235.30 0.00,226.05">
        <lane id="113522345_0" index="0" allow="pedestrian delivery bicycle" speed="5.56" length="211.92" shape="201.91,290.40 28.64,236.82 -0.48,227.58"/>
    </edge>
    <edge id="175753658" from="1863066857" to="8725837798" priority="11" type="highway.secondary" spreadType="center" shape="603.29,416.14 539.72,396.89 480.29,377.83 358.22,339.91 288.97,319.05 276.28,315.81 264.83,313.38 250.59,313.91">
        <lane id="175753658_0" index="0" disallow="tram rail_urban rail rail_electric rail_fast ship container cable_car subway aircraft wheelchair scooter drone" speed="13.89" length="363.03" shape="603.29,416.14 539.72,396.89 480.29,377.83 358.22,339.91 288.97,319.05 276.28,315.81 264.83,313.38 255.59,313.72"/>
        <param key="ref" value="D 941"/>
    </edge>
    <edge id="175753709" from="3443289994" to="243970340" priority="11" type="highway.secondary" shape="87.35,684.47 122.29,575.02 132.22,544.00 162.13,454.11 189.78,362.47">
        <lane id="175753709_0" index="0" disallow="tram rail_urban rail rail_electric rail_fast ship container cable_car subway aircraft wheelchair scooter drone" speed="13.89" length="330.83" shape="85.83,683.99 120.76,574.54 130.70,543.50 160.60,453.63 186.21,368.77"/>
        <param key="ref" value="D 94"/>
    </edge>
    <edge id="175753772" from="10732720215" to="8725837797" priority="1" type="highway.cycleway" shape="908.59,512.62 863.82,499.21 858.05,500.32 852.83,501.10 847.01,501.24 842.27,500.52 737.02,468.53 574.25,418.34 536.67,407.38 354.49,350.24 333.62,343.48 278.12,326.35 259.22,321.37 248.63,315.52">
        <lane id="175753772_0" index="0" allow="bicycle" speed="5.56" length="686.77" width="2.00" shape="908.30,513.58 863.77,500.24 858.22,501.31 852.91,502.10 846.95,502.24 842.05,501.50 736.73,469.49 573.96,419.30 536.38,408.34 354.18,351.19 333.32,344.43 277.85,327.31 258.84,322.30 251.66,318.34"/>
    </edge>
    <edge id="180241631" from="243997509" to="1906797036" priority="1" type="highway.path" shape="233.17,250.32 297.74,260.05 391.33,274.39 435.06,280.11 475.93,286.71 541.79,297.21">
        <lane id="180241631_0" index="0" allow="pedestrian bicycle" speed="5.56" length="308.25" width="2.00" shape="237.21,249.91 297.89,259.06 391.47,273.40 435.21,279.12 476.09,285.72 541.95,296.22"/>
    </edge>
    <edge id="194839358#0" from="243997516" to="243970306" priority="11" type="highway.secondary" spreadType="center" shape="225.71,284.30 230.83,281.56 236.53,280.46 241.41,280.90">
        <lane id="194839358#0_0" index="0" disallow="tram rail_urban rail rail_electric rail_fast ship container cable_car subway aircraft wheelchair scooter drone" speed="27.78" length="7.57" shape="229.83,282.09 230.83,281.56 236.53,280.46 237.16,280.52"/>
    </edge>
    <edge id="194839358#1" from="243970306" to="243971180" priority="11" type="highway.secondary" spreadType="center" shape="241.41,280.90 248.02,283.63 252.63,287.87 255.64,293.36">
        <lane id="194839358#1_0" index="0" disallow="tram rail_urban rail rail_electric rail_fast ship container cable_car subway aircraft wheelchair scooter drone" speed="27.78" length="15.22" shape="243.76,281.87 248.02,283.63 252.63,287.87 254.72,291.68"/>
    </edge>
    <edge id="194839358#2" from="243971180" to="8725837798" priority="11" type="highway.secondary" spreadType="center" shape="255.64,293.36 256.72,298.83 256.19,304.38 254.09,309.55 250.59,313.91">
        <lane id="194839358#2_0" index="0" disallow="tram rail_urban rail rail_electric rail_fast ship container cable_car subway aircraft wheelchair scooter drone" speed="27.78" length="12.09" shape="256.65,298.49 256.72,298.83 256.19,304.38 254.09,309.55 253.72,310.01"/>
    </edge>
    <edge id="194839358#3" from="8725837798" to="8725837797" priority="11" type="highway.secondary" spreadType="center">
        <lane id="194839358#3_0" index="0" disallow="tram rail_urban rail rail_electric rail_fast ship container cable_car subway aircraft wheelchair scooter drone" speed="27.78" length="0.20" shape="250.56,313.94 250.40,314.07"/>
    </edge>
    <edge id="194839358#4" from="8725837797" to="243970343" priority="11" type="highway.secondary" spreadType="center" shape="248.63,315.52 243.85,318.01 238.56,319.09 233.18,318.68">
        <lane id="194839358#4_0" index="0" disallow="tram rail_urban rail rail_electric rail_fast ship container cable_car subway aircraft wheelchair scooter drone" speed="27.78" length="11.39" shape="246.11,316.83 243.85,318.01 238.56,319.09 235.13,318.83"/>
    </edge>
    <edge id="194839358#5" from="243970343" to="243970393" priority="11" type="highway.secondary" spreadType="center" shape="233.18,318.68 227.19,316.28 222.33,312.05 219.13,306.46">
        <lane id="194839358#5_0" index="0" disallow="tram rail_urban rail rail_electric rail_fast ship container cable_car subway aircraft wheelchair scooter drone" speed="27.78" length="9.98" shape="228.53,316.81 227.19,316.28 222.33,312.05 221.28,310.23"/>
    </edge>
    <edge id="194839358#6" from="243970393" to="7425714194" priority="11" type="highway.secondary" spreadType="center" shape="219.13,306.46 218.10,302.34 218.01,298.09 218.85,293.93">
        <lane id="194839358#6_0" index="0" disallow="tram rail_urban rail rail_electric rail_fast ship container cable_car subway aircraft wheelchair scooter drone" speed="27.78" length="5.58" shape="218.50,303.94 218.10,302.34 218.01,298.40"/>
    </edge>
    <edge id="194839358#7" from="7425714194" to="243997516" priority="11" type="highway.secondary" spreadType="center" shape="218.85,293.93 221.53,288.58 225.71,284.30">
        <lane id="194839358#7_0" index="0" disallow="tram rail_urban rail rail_electric rail_fast ship container cable_car subway aircraft wheelchair scooter drone" speed="27.78" length="5.47" shape="220.85,289.93 221.53,288.58 224.30,285.75"/>
    </edge>
    <edge id="22739523" from="243970343" to="243970340" priority="11" type="highway.secondary" spreadType="center" shape="233.18,318.68 219.70,325.56 206.27,335.76 199.60,345.42 195.07,353.28 191.17,363.26">
        <lane id="22739523_0" index="0" disallow="tram rail_urban rail rail_electric rail_fast ship container cable_car subway aircraft wheelchair scooter drone" speed="27.78" length="50.98" shape="228.71,320.96 219.70,325.56 206.27,335.76 199.60,345.42 195.07,353.28 193.91,356.25"/>
        <param key="ref" value="D 94"/>
    </edge>
    <edge id="22739546" from="243970340" to="243970393" priority="11" type="highway.secondary" spreadType="center" shape="188.20,362.19 191.57,352.24 194.90,342.87 201.24,331.58 208.95,320.61 219.13,306.46">
        <lane id="22739546_0" index="0" disallow="tram rail_urban rail rail_electric rail_fast ship container cable_car subway aircraft wheelchair scooter drone" speed="27.78" length="52.43" shape="190.60,355.12 191.57,352.24 194.90,342.87 201.24,331.58 208.95,320.61 216.59,309.98"/>
        <param key="ref" value="D 94"/>
    </edge>
    <edge id="22739599" from="243971180" to="1158350110" priority="11" type="highway.secondary" spreadType="center" shape="255.64,293.36 267.09,300.63 278.34,306.61 295.39,312.73 360.56,333.43 486.88,372.40 537.40,388.34 757.25,456.00 831.13,478.43 844.15,483.29 853.23,487.59 859.41,489.98 868.31,492.38 881.52,494.64 894.25,498.40 915.63,504.85">
        <lane id="22739599_0" index="0" disallow="tram rail_urban rail rail_electric rail_fast ship container cable_car subway aircraft wheelchair scooter drone" speed="27.78" length="688.77" shape="260.05,296.16 267.09,300.63 278.34,306.61 295.39,312.73 360.56,333.43 486.88,372.40 537.40,388.34 757.25,456.00 831.13,478.43 844.15,483.29 853.23,487.59 859.41,489.98 868.31,492.38 881.52,494.64 894.25,498.40 915.63,504.85"/>
    </edge>
    <edge id="22742035" from="243997508" to="243997509" priority="11" type="highway.secondary" spreadType="center" shape="238.35,218.75 234.55,234.45 233.73,242.20 233.17,250.32">
        <lane id="22742035_0" index="0" disallow="tram rail_urban rail rail_electric rail_fast ship container cable_car subway aircraft wheelchair scooter drone" speed="27.78" length="28.45" shape="238.29,219.00 234.55,234.45 233.73,242.20 233.40,246.95"/>
        <param key="ref" value="D 94"/>
    </edge>
    <edge id="22742037" from="243997516" to="243997508" priority="11" type="highway.secondary" spreadType="center" shape="225.71,284.30 228.27,266.68 228.10,253.30 228.83,242.43 229.98,233.95 235.30,217.89">
        <lane id="22742037_0" index="0" disallow="tram rail_urban rail rail_electric rail_fast ship container cable_car subway aircraft wheelchair scooter drone" speed="27.78" length="62.51" shape="226.38,279.68 228.27,266.68 228.10,253.30 228.83,242.43 229.98,233.95 235.18,218.25"/>
        <param key="ref" value="D 94"/>
    </edge>
    <edge id="22742045" from="1286951788" to="243997508" priority="11" type="highway.secondary" shape="305.45,0.00 302.66,9.32 285.07,62.55 252.02,169.90 241.93,201.06 236.77,218.53">
        <lane id="22742045_0" index="0" disallow="tram rail_urban rail rail_electric rail_fast ship container cable_car subway aircraft wheelchair scooter drone" speed="27.78" length="228.89" shape="306.98,0.46 304.19,9.80 286.59,63.04 253.55,170.38 243.46,201.53 238.35,218.81"/>
        <param key="ref" value="D 94"/>
    </edge>
    <edge id="335325064" from="243970340" to="3424455597" priority="1" type="highway.track" shape="189.78,362.47 178.24,358.46 7.79,303.00">
        <lane id="335325064_0" index="0" allow="pedestrian motorcycle moped bicycle" speed="5.56" length="184.22" shape="182.45,361.62 177.73,359.98 7.29,304.52"/>
    </edge>
    <edge id="793849030" from="7425714194" to="1286954597" priority="1" type="highway.service">
        <lane id="793849030_0" index="0" allow="pedestrian delivery bicycle" speed="5.56" length="14.14" shape="215.71,294.64 202.20,290.49"/>
    </edge>
    <edge id="984480645" from="243997509" to="243970306" priority="11" type="highway.secondary" spreadType="center" shape="233.17,250.32 236.40,266.09 241.41,280.90">
        <lane id="984480645_0" index="0" disallow="tram rail_urban rail rail_electric rail_fast ship container cable_car subway aircraft wheelchair scooter drone" speed="27.78" length="23.25" shape="234.01,254.45 236.40,266.09 240.04,276.86"/>
        <param key="ref" value="D 94"/>
    </edge>

    <junction id="10732720215" type="priority" x="908.59" y="512.62" incLanes="-175753772_0" intLanes=":10732720215_0_0" shape="908.59,512.62 909.16,510.71 908.59,512.62">
        <request index="0" response="0" foes="0" cont="0"/>
    </junction>
    <junction id="1158350110" type="dead_end" x="915.63" y="504.85" incLanes="22739599_0" intLanes="" shape="916.09,503.32 915.17,506.39"/>
    <junction id="1286951788" type="priority" x="305.45" y="0.00" incLanes="-22742045_0" intLanes=":1286951788_0_0" shape="305.45,-0.00 302.38,-0.92 305.45,0.00">
        <request index="0" response="0" foes="0" cont="0"/>
    </junction>
    <junction id="1286954597" type="priority" x="202.53" y="288.91" incLanes="793849030_0 -113522345_0" intLanes=":1286954597_0_0 :1286954597_1_0" shape="201.73,292.02 203.61,285.90 203.33,285.81 201.44,291.93">
        <request index="0" response="00" foes="00" cont="0"/>
        <request index="1" response="00" foes="00" cont="0"/>
    </junction>
    <junction id="1863066673" type="priority" x="0.00" y="226.05" incLanes="113522345_0" intLanes=":1863066673_0_0" shape="-0.00,226.05 -0.97,229.10 -0.00,226.05">
        <request index="0" response="0" foes="0" cont="0"/>
    </junction>
    <junction id="1863066857" type="dead_end" x="603.29" y="416.14" incLanes="" intLanes="" shape="603.76,414.61 602.83,417.68"/>
    <junction id="1906797036" type="priority" x="541.79" y="297.21" incLanes="180241631_0" intLanes=":1906797036_0_0" shape="541.79,297.21 542.11,295.23 541.79,297.21">
        <request index="0" response="0" foes="0" cont="0"/>
    </junction>
    <junction id="243970306" type="priority" x="241.41" y="280.90" incLanes="984480645_0 194839358#0_0" intLanes=":243970306_0_0 :243970306_1_0" shape="243.15,283.35 244.37,280.39 243.31,279.63 242.83,279.03 242.38,278.28 241.95,277.39 241.56,276.34 238.53,277.37 238.65,278.31 238.51,278.62 238.24,278.82 237.84,278.93 237.30,278.93 237.02,282.11 239.35,282.29 240.17,282.39 240.97,282.56 241.91,282.86">
        <request index="0" response="10" foes="10" cont="0"/>
        <request index="1" response="00" foes="01" cont="0"/>
    </junction>
    <junction id="243970340" type="priority" x="189.78" y="362.47" incLanes="22739523_0 -335325064_0 175753709_0" intLanes=":243970340_0_0 :243970340_8_0 :243970340_2_0 :243970340_3_0 :243970340_4_0 :243970340_5_0 :243970340_6_0 :243970340_9_0" shape="195.43,356.76 189.08,354.60 187.95,356.56 187.18,357.12 186.26,357.39 185.21,357.38 184.02,357.08 181.92,363.13 183.97,364.31 184.56,365.10 184.88,366.03 184.92,367.10 184.67,368.31 190.80,370.16">
        <request index="0" response="00000000" foes="10001000" cont="0"/>
        <request index="1" response="01100000" foes="01111000" cont="1"/>