<?xml version="1.0" encoding="UTF-8"?>

<!-- generated on 2024-09-03 01:37:04 by Eclipse SUMO netconvert Version 1.20.0
<configuration xmlns:xsi="http://www.w3.org/2001/XMLSchema-instance" xsi:noNamespaceSchemaLocation="http://sumo.dlr.de/xsd/netconvertConfiguration.xsd">

    <input>
        <osm-files value="train_files/roundabout/easy/osm_files/map(97).osm"/>
    </input>

    <output>
        <output-file value="train_files/roundabout/easy/outputs/map(97)_dict/map(97)/map(97).net.xml"/>
    </output>

    <projection>
        <proj.utm value="true"/>
    </projection>

    <building_defaults>
        <default.junctions.keep-clear value="false"/>
    </building_defaults>

</configuration>
-->

<net version="1.20" junctionCornerDetail="5" limitTurnSpeed="5.50" xmlns:xsi="http://www.w3.org/2001/XMLSchema-instance" xsi:noNamespaceSchemaLocation="http://sumo.dlr.de/xsd/net_file.xsd">

    <location netOffset="-332567.45,-5886794.18" convBoundary="0.00,0.00,3023.75,6269.87" origBoundary="24.496544,53.105219,24.543989,53.161025" projParameter="+proj=utm +zone=35 +ellps=WGS84 +datum=WGS84 +units=m +no_defs"/>

    <type id="highway.primary" priority="12" numLanes="2" speed="27.78" disallow="tram rail_urban rail rail_electric rail_fast ship container cable_car subway aircraft wheelchair scooter drone" oneway="0"/>
    <type id="highway.secondary" priority="11" numLanes="1" speed="27.78" disallow="tram rail_urban rail rail_electric rail_fast ship container cable_car subway aircraft wheelchair scooter drone" oneway="0"/>
    <type id="highway.service" priority="1" numLanes="1" speed="5.56" allow="pedestrian delivery bicycle" oneway="0"/>

    <edge id=":1647588324_0" function="internal">
        <lane id=":1647588324_0_0" index="0" disallow="pedestrian tram rail_urban rail rail_electric rail_fast ship container cable_car subway aircraft wheelchair scooter drone" speed="27.78" length="18.83" shape="636.67,4577.28 632.58,4581.95 629.41,4585.65 626.90,4588.80 624.79,4591.87"/>
    </edge>
    <edge id=":1647588324_1" function="internal">
        <lane id=":1647588324_1_0" index="0" disallow="tram rail_urban rail rail_electric rail_fast ship container cable_car subway aircraft wheelchair scooter drone" speed="27.78" length="17.81" shape="636.67,4577.28 632.92,4581.15 629.91,4583.32 626.53,4585.05 621.69,4587.58"/>
        <lane id=":1647588324_1_1" index="1" disallow="tram rail_urban rail rail_electric rail_fast ship container cable_car subway aircraft wheelchair scooter drone" speed="27.78" length="17.81" shape="634.26,4575.17 630.72,4578.80 627.87,4580.82 624.68,4582.42 620.12,4584.79"/>
    </edge>
    <edge id=":1647588326_0" function="internal">
        <lane id=":1647588326_0_0" index="0" disallow="tram rail_urban rail rail_electric rail_fast ship container cable_car subway aircraft wheelchair scooter drone" speed="27.78" length="17.22" shape="491.07,4549.55 487.81,4545.65 485.23,4543.30 482.42,4541.17 478.48,4537.90"/>
        <lane id=":1647588326_0_1" index="1" disallow="tram rail_urban rail rail_electric rail_fast ship container cable_car subway aircraft wheelchair scooter drone" speed="27.78" length="17.59" shape="491.07,4549.55 488.12,4545.24 486.30,4542.10 484.26,4539.18 480.61,4535.51"/>
    </edge>
    <edge id=":1647588326_2" function="internal">
        <lane id=":1647588326_2_0" index="0" disallow="tram rail_urban rail rail_electric rail_fast ship container cable_car subway aircraft wheelchair scooter drone" speed="24.66" length="17.66" shape="491.07,4549.55 487.94,4545.24 486.16,4542.01 485.03,4538.48 483.82,4533.27"/>
        <lane id=":1647588326_2_1" index="1" disallow="tram rail_urban rail rail_electric rail_fast ship container cable_car subway aircraft wheelchair scooter drone" speed="24.10" length="17.66" shape="493.61,4547.62 490.65,4543.49 488.99,4540.39 487.95,4537.00 486.82,4532.02"/>
    </edge>
    <edge id=":1647588327_0" function="internal">
        <lane id=":1647588327_0_0" index="0" disallow="tram rail_urban rail rail_electric rail_fast ship container cable_car subway aircraft wheelchair scooter drone" speed="27.78" length="16.05" shape="633.20,4512.02 636.55,4515.28 639.33,4516.96 642.41,4518.26 646.68,4520.40"/>
        <lane id=":1647588327_0_1" index="1" disallow="tram rail_urban rail rail_electric rail_fast ship container cable_car subway aircraft wheelchair scooter drone" speed="27.78" length="16.46" shape="633.20,4512.02 636.34,4515.77 638.51,4518.37 641.01,4520.58 645.09,4523.17"/>
    </edge>
    <edge id=":1647588327_2" function="internal">
        <lane id=":1647588327_2_0" index="0" disallow="tram rail_urban rail rail_electric rail_fast ship container cable_car subway aircraft wheelchair scooter drone" speed="27.78" length="16.51" shape="633.20,4512.02 636.35,4515.84 638.22,4518.68 639.89,4521.67 642.45,4525.94"/>
        <lane id=":1647588327_2_1" index="1" disallow="tram rail_urban rail rail_electric rail_fast ship container cable_car subway aircraft wheelchair scooter drone" speed="27.78" length="16.51" shape="630.80,4514.14 633.85,4517.85 635.65,4520.61 637.27,4523.51 639.75,4527.66"/>
    </edge>
    <edge id=":1647588352_0" function="internal">
        <lane id=":1647588352_0_0" index="0" disallow="tram rail_urban rail rail_electric rail_fast ship container cable_car subway aircraft wheelchair scooter drone" speed="17.26" length="12.83" shape="612.04,4485.20 613.05,4488.66 613.62,4491.17 614.62,4493.37 616.96,4495.92"/>
        <lane id=":1647588352_0_1" index="1" disallow="tram rail_urban rail rail_electric rail_fast ship container cable_car subway aircraft wheelchair scooter drone" speed="18.32" length="12.83" shape="609.04,4486.32 610.22,4490.20 610.94,4492.99 612.15,4495.44 614.83,4498.31"/>
    </edge>
    <edge id=":1647588352_2" function="internal">
        <lane id=":1647588352_2_0" index="0" disallow="tram rail_urban rail rail_electric rail_fast ship container cable_car subway aircraft wheelchair scooter drone" speed="27.78" length="12.79" shape="605.95,4488.90 609.36,4490.78 611.74,4492.02 613.97,4493.46 616.96,4495.92"/>
        <lane id=":1647588352_2_1" index="1" disallow="tram rail_urban rail rail_electric rail_fast ship container cable_car subway aircraft wheelchair scooter drone" speed="27.78" length="12.79" shape="604.33,4491.66 607.58,4493.44 609.85,4494.61 611.98,4495.97 614.83,4498.31"/>
    </edge>
    <edge id=":1647588354_0" function="internal">
        <lane id=":1647588354_0_0" index="0" disallow="tram rail_urban rail rail_electric rail_fast ship container cable_car subway aircraft wheelchair scooter drone" speed="24.34" length="12.06" shape="560.56,4595.18 556.90,4594.80 554.24,4594.94 551.76,4595.46 548.67,4596.21"/>
    </edge>
    <edge id=":1647588354_1" function="internal">
        <lane id=":1647588354_1_0" index="0" disallow="tram rail_urban rail rail_electric rail_fast ship container cable_car subway aircraft wheelchair scooter drone" speed="27.78" length="12.01" shape="560.56,4595.18 557.01,4594.41 554.69,4593.48 552.43,4592.32 549.07,4590.85"/>
        <lane id=":1647588354_1_1" index="1" disallow="tram rail_urban rail rail_electric rail_fast ship container cable_car subway aircraft wheelchair scooter drone" speed="27.78" length="12.01" shape="561.06,4592.02 557.71,4591.28 555.52,4590.39 553.39,4589.27 550.22,4587.87"/>
    </edge>
    <edge id=":1647588356_0" function="internal">
        <lane id=":1647588356_0_0" index="0" disallow="tram rail_urban rail rail_electric rail_fast ship container cable_car subway aircraft wheelchair scooter drone" speed="27.78" length="13.52" shape="558.90,4474.37 562.82,4473.69 565.40,4472.78 567.91,4471.58 571.61,4469.99"/>
        <lane id=":1647588356_0_1" index="1" disallow="tram rail_urban rail rail_electric rail_fast ship container cable_car subway aircraft wheelchair scooter drone" speed="27.78" length="14.03" shape="558.90,4474.37 563.07,4474.16 565.98,4474.30 568.82,4474.13 572.75,4472.98"/>
    </edge>
    <edge id=":1647588356_2" function="internal">
        <lane id=":1647588356_2_0" index="0" disallow="tram rail_urban rail rail_electric rail_fast ship container cable_car subway aircraft wheelchair scooter drone" speed="27.78" length="13.94" shape="558.90,4474.37 563.13,4474.18 566.01,4474.70 568.86,4475.69 573.01,4476.92"/>
        <lane id=":1647588356_2_1" index="1" disallow="tram rail_urban rail rail_electric rail_fast ship container cable_car subway aircraft wheelchair scooter drone" speed="27.78" length="13.94" shape="559.28,4477.54 563.17,4477.39 565.82,4477.92 568.44,4478.88 572.26,4480.03"/>
    </edge>
    <edge id=":1647588361_0" function="internal">
        <lane id=":1647588361_0_0" index="0" disallow="tram rail_urban rail rail_electric rail_fast ship container cable_car subway aircraft wheelchair scooter drone" speed="10.35" length="10.49" shape="649.25,4566.03 646.54,4566.69 644.54,4567.14 642.93,4568.05 641.40,4570.15"/>
        <lane id=":1647588361_0_1" index="1" disallow="tram rail_urban rail rail_electric rail_fast ship container cable_car subway aircraft wheelchair scooter drone" speed="11.57" length="10.49" shape="648.27,4562.98 644.89,4563.89 642.45,4564.59 640.50,4565.90 638.60,4568.60"/>
    </edge>
    <edge id=":1647588361_2" function="internal">
        <lane id=":1647588361_2_0" index="0" disallow="tram rail_urban rail rail_electric rail_fast ship container cable_car subway aircraft wheelchair scooter drone" speed="27.78" length="10.61" shape="645.21,4559.94 644.30,4563.06 643.68,4565.21 642.87,4567.27 641.40,4570.15"/>
        <lane id=":1647588361_2_1" index="1" disallow="tram rail_urban rail rail_electric rail_fast ship container cable_car subway aircraft wheelchair scooter drone" speed="27.78" length="10.61" shape="642.16,4558.99 641.30,4561.93 640.73,4563.95 639.98,4565.90 638.60,4568.60"/>
    </edge>
    <edge id=":1647588365_0" function="internal">
        <lane id=":1647588365_0_0" index="0" disallow="tram rail_urban rail rail_electric rail_fast ship container cable_car subway aircraft wheelchair scooter drone" speed="27.78" length="14.01" shape="484.57,4497.13 488.49,4495.99 491.21,4495.29 493.84,4494.38 497.51,4492.64"/>
        <lane id=":1647588365_0_1" index="1" disallow="tram rail_urban rail rail_electric rail_fast ship container cable_car subway aircraft wheelchair scooter drone" speed="27.78" length="14.01" shape="485.54,4500.18 489.62,4498.99 492.44,4498.25 495.17,4497.29 498.99,4495.48"/>
    </edge>
    <edge id=":1647588365_2" function="internal">
        <lane id=":1647588365_2_0" index="0" disallow="tram rail_urban rail rail_electric rail_fast ship container cable_car subway aircraft wheelchair scooter drone" speed="15.64" length="14.25" shape="488.02,4503.59 490.03,4499.65 491.63,4496.97 493.79,4494.86 497.51,4492.64"/>
        <lane id=":1647588365_2_1" index="1" disallow="tram rail_urban rail rail_electric rail_fast ship container cable_car subway aircraft wheelchair scooter drone" speed="14.95" length="14.25" shape="490.55,4505.65 492.35,4502.02 493.73,4499.52 495.63,4497.53 498.99,4495.48"/>
    </edge>
    <edge id=":1647622327_0" function="internal">
        <lane id=":1647622327_0_0" index="0" disallow="tram rail_urban rail rail_electric rail_fast ship container cable_car subway aircraft wheelchair scooter drone" speed="8.60" length="6.33" shape="511.95,4576.15 511.91,4574.26 511.80,4572.91 511.31,4571.73 510.12,4570.37"/>
    </edge>
    <edge id=":1647622327_1" function="internal">
        <lane id=":1647622327_1_0" index="0" disallow="tram rail_urban rail rail_electric rail_fast ship container cable_car subway aircraft wheelchair scooter drone" speed="27.78" length="6.30" shape="515.67,4573.95 513.95,4572.98 512.74,4572.37 511.60,4571.65 510.12,4570.37"/>
        <lane id=":1647622327_1_1" index="1" disallow="tram rail_urban rail rail_electric rail_fast ship container cable_car subway aircraft wheelchair scooter drone" speed="27.78" length="6.30" shape="517.34,4571.22 515.79,4570.36 514.69,4569.82 513.66,4569.19 512.33,4568.05"/>
    </edge>
    <edge id=":1653322414_0" function="internal">
        <lane id=":1653322414_0_0" index="0" allow="pedestrian delivery bicycle" speed="5.56" length="14.56" shape="682.15,4443.17 680.65,4437.66 679.31,4433.57 678.11,4430.91 677.06,4429.67"/>
    </edge>
    <edge id=":1653322414_1" function="internal">
        <lane id=":1653322414_1_0" index="0" allow="pedestrian delivery bicycle" speed="5.56" length="14.98" shape="685.47,4441.81 683.72,4438.43 681.97,4435.01 679.88,4431.96 677.06,4429.67"/>
    </edge>
    <edge id=":1653322414_2" function="internal">
        <lane id=":1653322414_2_0" index="0" allow="pedestrian delivery bicycle" speed="5.56" length="12.58" shape="687.03,4437.30 684.46,4435.10 682.25,4433.19 679.93,4431.42 677.06,4429.67"/>
    </edge>
    <edge id=":1653322417_0" function="internal">
        <lane id=":1653322417_0_0" index="0" allow="pedestrian delivery bicycle" speed="6.47" length="8.98" shape="630.51,4404.48 629.09,4404.25 627.56,4405.06 625.93,4406.90 624.19,4409.77"/>
    </edge>
    <edge id=":1653322417_1" function="internal">
        <lane id=":1653322417_1_0" index="0" allow="pedestrian delivery bicycle" speed="5.56" length="11.88" shape="630.51,4404.48 627.55,4403.43 624.94,4403.51 622.23,4404.15 618.95,4404.81"/>
    </edge>
    <edge id=":1653322417_2" function="internal">
        <lane id=":1653322417_2_0" index="0" allow="pedestrian delivery bicycle" speed="6.15" length="7.84" shape="630.51,4404.48 628.17,4402.99 626.71,4401.52 626.12,4400.09 626.40,4398.68"/>
    </edge>
    <edge id=":1653322417_3" function="internal">
        <lane id=":1653322417_3_0" index="0" disallow="tram rail_urban rail rail_electric rail_fast ship container cable_car subway aircraft wheelchair scooter drone" speed="27.78" length="10.87" shape="629.24,4400.14 624.19,4409.77"/>
    </edge>
    <edge id=":1653322417_4" function="internal">
        <lane id=":1653322417_4_0" index="0" allow="pedestrian delivery bicycle" speed="9.78" length="2.58" shape="629.24,4400.14 627.91,4401.77 627.50,4402.02"/>
    </edge>
    <edge id=":1653322417_10" function="internal">
        <lane id=":1653322417_10_0" index="0" allow="pedestrian delivery bicycle" speed="9.78" length="9.08" shape="627.50,4402.02 625.75,4403.09 622.76,4404.10 618.95,4404.81"/>
    </edge>
    <edge id=":1653322417_5" function="internal">
        <lane id=":1653322417_5_0" index="0" allow="pedestrian delivery bicycle" speed="8.47" length="8.61" shape="618.54,4401.63 621.58,4401.12 623.90,4400.45 625.51,4399.64 626.40,4398.68"/>
    </edge>
    <edge id=":1653322417_6" function="internal">
        <lane id=":1653322417_6_0" index="0" allow="pedestrian delivery bicycle" speed="6.71" length="14.21" shape="618.54,4401.63 622.90,4401.62 625.29,4402.97 625.72,4405.69 624.19,4409.77"/>
    </edge>
    <edge id=":1653322417_7" function="internal">
        <lane id=":1653322417_7_0" index="0" allow="pedestrian delivery bicycle" speed="3.65" length="4.67" shape="618.54,4401.63 619.84,4402.27 620.33,4403.01 620.04,4403.86 618.95,4404.81"/>
    </edge>
    <edge id=":1653322417_8" function="internal">
        <lane id=":1653322417_8_0" index="0" allow="pedestrian delivery bicycle" speed="4.66" length="6.06" shape="621.36,4408.27 622.02,4406.54 621.83,4405.38 620.81,4404.80 618.95,4404.81"/>
    </edge>
    <edge id=":1653322417_9" function="internal">
        <lane id=":1653322417_9_0" index="0" disallow="tram rail_urban rail rail_electric rail_fast ship container cable_car subway aircraft wheelchair scooter drone" speed="27.78" length="10.84" shape="621.36,4408.27 626.40,4398.68"/>
    </edge>
    <edge id=":1653322419_0" function="internal">
        <lane id=":1653322419_0_0" index="0" allow="pedestrian delivery bicycle" speed="6.13" length="5.59" shape="709.12,4540.71 710.35,4540.60 711.47,4540.05 712.48,4539.05 713.37,4537.62"/>
    </edge>
    <edge id=":1653322419_1" function="internal">
        <lane id=":1653322419_1_0" index="0" disallow="tram rail_urban rail rail_electric rail_fast ship container cable_car subway aircraft wheelchair scooter drone" speed="27.78" length="6.23" shape="709.12,4540.71 715.39,4541.46"/>
        <lane id=":1653322419_1_1" index="1" disallow="tram rail_urban rail rail_electric rail_fast ship container cable_car subway aircraft wheelchair scooter drone" speed="27.78" length="6.23" shape="708.86,4543.90 714.96,4544.63"/>
    </edge>
    <edge id=":1653322427_0" function="internal">
        <lane id=":1653322427_0_0" index="0" allow="pedestrian delivery bicycle" speed="5.56" length="21.00" shape="724.72,4492.64 722.57,4488.77 718.39,4484.80 713.64,4481.14 709.82,4478.21"/>
    </edge>
    <edge id=":1653322427_1" function="internal">
        <lane id=":1653322427_1_0" index="0" allow="pedestrian delivery bicycle" speed="5.56" length="21.09" shape="724.72,4492.64 722.87,4488.48 719.38,4483.82 715.45,4479.37 712.29,4475.79"/>
    </edge>
    <edge id=":1653322427_2" function="internal">
        <lane id=":1653322427_2_0" index="0" allow="pedestrian delivery bicycle" speed="5.56" length="20.45" shape="724.72,4492.64 723.28,4488.33 720.75,4483.32 717.92,4478.42 715.61,4474.40"/>
    </edge>
    <edge id=":1793024715_0" function="internal">
        <lane id=":1793024715_0_0" index="0" disallow="tram rail_urban rail rail_electric rail_fast ship container cable_car subway aircraft wheelchair scooter drone" speed="16.08" length="11.19" shape="588.32,4602.92 585.88,4600.98 583.96,4599.63 581.77,4598.70 578.50,4598.00"/>
    </edge>
    <edge id=":1793024715_1" function="internal">
        <lane id=":1793024715_1_0" index="0" disallow="tram rail_urban rail rail_electric rail_fast ship container cable_car subway aircraft wheelchair scooter drone" speed="27.78" length="11.12" shape="589.94,4597.17 586.54,4597.70 584.20,4598.16 581.87,4598.34 578.50,4598.00"/>
        <lane id=":1793024715_1_1" index="1" disallow="tram rail_urban rail rail_electric rail_fast ship container cable_car subway aircraft wheelchair scooter drone" speed="27.78" length="11.12" shape="589.58,4593.99 586.44,4594.49 584.27,4594.95 582.12,4595.14 578.99,4594.84"/>
    </edge>
    <edge id=":1793024728_0" function="internal">
        <lane id=":1793024728_0_0" index="0" disallow="tram rail_urban rail rail_electric rail_fast ship container cable_car subway aircraft wheelchair scooter drone" speed="27.78" length="13.38" shape="616.02,4634.55 614.40,4631.45 612.93,4628.60 611.38,4625.82 609.47,4622.89"/>
    </edge>
    <edge id=":1793024728_1" function="internal">
        <lane id=":1793024728_1_0" index="0" disallow="tram rail_urban rail rail_electric rail_fast ship container cable_car subway aircraft wheelchair scooter drone" speed="3.65" length="1.44" shape="616.02,4634.55 616.15,4633.11"/>
    </edge>
    <edge id=":1793024728_3" function="internal">
        <lane id=":1793024728_3_0" index="0" disallow="tram rail_urban rail rail_electric rail_fast ship container cable_car subway aircraft wheelchair scooter drone" speed="3.65" length="3.23" shape="616.15,4633.11 616.66,4632.38 617.56,4632.35 618.83,4633.02"/>
    </edge>
    <edge id=":1793024728_2" function="internal">
        <lane id=":1793024728_2_0" index="0" disallow="pedestrian tram rail_urban rail rail_electric rail_fast ship container cable_car subway aircraft wheelchair scooter drone" speed="13.86" length="5.21" shape="617.67,4628.02 617.77,4629.56 617.87,4630.63 618.16,4631.65 618.83,4633.02"/>
    </edge>
    <edge id=":1965420203_0" function="internal">
        <lane id=":1965420203_0_0" index="0" disallow="tram rail_urban rail rail_electric rail_fast ship container cable_car subway aircraft wheelchair scooter drone" speed="27.78" length="11.33" shape="613.43,4430.14 611.92,4432.94 610.73,4435.13 609.63,4437.36 608.38,4440.28"/>
    </edge>
    <edge id=":1965420203_1" function="internal">
        <lane id=":1965420203_1_0" index="0" allow="pedestrian delivery bicycle" speed="6.81" length="4.94" shape="613.43,4430.14 610.63,4434.22"/>
    </edge>
    <edge id=":1965420203_7" function="internal">
        <lane id=":1965420203_7_0" index="0" allow="pedestrian delivery bicycle" speed="6.81" length="10.69" shape="610.63,4434.22 608.04,4435.45 605.65,4433.86 603.46,4429.42"/>
    </edge>
    <edge id=":1965420203_2" function="internal">
        <lane id=":1965420203_2_0" index="0" allow="pedestrian delivery bicycle" speed="4.66" length="6.47" shape="606.48,4428.35 607.38,4430.18 608.37,4430.84 609.45,4430.33 610.60,4428.65"/>
    </edge>
    <edge id=":1965420203_3" function="internal">
        <lane id=":1965420203_3_0" index="0" allow="pedestrian delivery bicycle" speed="12.32" length="12.45" shape="606.48,4428.35 607.75,4431.55 608.76,4434.34 609.11,4437.12 608.38,4440.28"/>
    </edge>
    <edge id=":1965420203_4" function="internal">
        <lane id=":1965420203_4_0" index="0" allow="pedestrian delivery bicycle" speed="3.65" length="4.67" shape="606.48,4428.35 606.13,4429.75 605.51,4430.39 604.62,4430.29 603.46,4429.42"/>
    </edge>
    <edge id=":1965420203_5" function="internal">
        <lane id=":1965420203_5_0" index="0" allow="pedestrian delivery bicycle" speed="11.23" length="10.29" shape="605.42,4439.08 606.12,4436.29 605.75,4434.28 604.72,4432.25 603.46,4429.42"/>
    </edge>
    <edge id=":1965420203_6" function="internal">
        <lane id=":1965420203_6_0" index="0" disallow="tram rail_urban rail rail_electric rail_fast ship container cable_car subway aircraft wheelchair scooter drone" speed="27.78" length="11.66" shape="605.42,4439.08 606.69,4436.11 607.84,4433.78 609.07,4431.49 610.60,4428.65"/>
    </edge>
    <edge id=":2531026191_0" function="internal">
        <lane id=":2531026191_0_0" index="0" disallow="tram rail_urban rail rail_electric rail_fast ship container cable_car subway aircraft wheelchair scooter drone" speed="3.65" length="4.67" shape="-0.22,4449.97 -1.30,4449.01 -1.58,4448.17 -1.08,4447.43 0.22,4446.80"/>
    </edge>
    <edge id=":275451264_0" function="internal">
        <lane id=":275451264_0_0" index="0" disallow="tram rail_urban rail rail_electric rail_fast ship container cable_car subway aircraft wheelchair scooter drone" speed="27.78" length="4.85" shape="515.02,4616.14 514.05,4617.19 513.48,4617.99 513.01,4618.86 512.36,4620.15"/>
    </edge>
    <edge id=":275451264_1" function="internal">
        <lane id=":275451264_1_0" index="0" disallow="tram rail_urban rail rail_electric rail_fast ship container cable_car subway aircraft wheelchair scooter drone" speed="13.32" length="3.58" shape="509.52,4618.66 510.01,4617.72 510.28,4617.04 510.43,4616.32 510.56,4615.27"/>
    </edge>
    <edge id=":275451264_2" function="internal">
        <lane id=":275451264_2_0" index="0" disallow="tram rail_urban rail rail_electric rail_fast ship container cable_car subway aircraft wheelchair scooter drone" speed="3.65" length="1.44" shape="509.52,4618.66 510.79,4617.97"/>
    </edge>
    <edge id=":275451264_3" function="internal">
        <lane id=":275451264_3_0" index="0" disallow="tram rail_urban rail rail_electric rail_fast ship container cable_car subway aircraft wheelchair scooter drone" speed="3.65" length="3.23" shape="510.79,4617.97 511.68,4617.99 512.21,4618.71 512.36,4620.15"/>
    </edge>
    <edge id=":275451277_0" function="internal">
        <lane id=":275451277_0_0" index="0" disallow="tram rail_urban rail rail_electric rail_fast ship container cable_car subway aircraft wheelchair scooter drone" speed="3.65" length="4.67" shape="251.41,5117.45 250.14,5118.14 249.25,5118.12 248.72,5117.40 248.57,5115.96"/>
    </edge>
    <edge id=":275451337_0" function="internal">
        <lane id=":275451337_0_0" index="0" disallow="tram rail_urban rail rail_electric rail_fast ship container cable_car subway aircraft wheelchair scooter drone" speed="27.78" length="17.40" shape="447.29,4517.11 442.31,4514.37 438.37,4512.34 434.94,4510.96 431.44,4510.17"/>
    </edge>
    <edge id=":275451337_1" function="internal">
        <lane id=":275451337_1_0" index="0" disallow="tram rail_urban rail rail_electric rail_fast ship container cable_car subway aircraft wheelchair scooter drone" speed="27.78" length="17.85" shape="431.88,4507.00 435.48,4507.26 439.22,4507.07 443.65,4506.50 449.33,4505.64"/>
        <lane id=":275451337_1_1" index="1" disallow="tram rail_urban rail rail_electric rail_fast ship container cable_car subway aircraft wheelchair scooter drone" speed="27.78" length="17.85" shape="431.88,4507.00 435.52,4507.76 439.36,4508.66 443.94,4509.18 449.80,4508.80"/>
    </edge>
    <edge id=":275451337_3" function="internal">
        <lane id=":275451337_3_0" index="0" disallow="tram rail_urban rail rail_electric rail_fast ship container cable_car subway aircraft wheelchair scooter drone" speed="3.65" length="1.44" shape="431.88,4507.00 432.96,4507.96"/>
    </edge>
    <edge id=":275451337_4" function="internal">
        <lane id=":275451337_4_0" index="0" disallow="tram rail_urban rail rail_electric rail_fast ship container cable_car subway aircraft wheelchair scooter drone" speed="3.65" length="3.23" shape="432.96,4507.96 433.24,4508.81 432.74,4509.55 431.44,4510.17"/>
    </edge>
    <edge id=":275451338_0" function="internal">
        <lane id=":275451338_0_0" index="0" disallow="tram rail_urban rail rail_electric rail_fast ship container cable_car subway aircraft wheelchair scooter drone" speed="27.38" length="17.74" shape="608.21,4440.70 607.17,4444.13 606.72,4447.81 606.63,4452.24 606.67,4457.93"/>
        <lane id=":275451338_0_1" index="1" disallow="tram rail_urban rail rail_electric rail_fast ship container cable_car subway aircraft wheelchair scooter drone" speed="27.78" length="17.74" shape="608.21,4440.70 606.67,4444.10 605.12,4447.71 603.92,4452.13 603.47,4457.95"/>
    </edge>
    <edge id=":275451338_2" function="internal">
        <lane id=":275451338_2_0" index="0" disallow="tram rail_urban rail rail_electric rail_fast ship container cable_car subway aircraft wheelchair scooter drone" speed="3.65" length="1.44" shape="608.21,4440.70 607.02,4441.52"/>
    </edge>
    <edge id=":275451338_4" function="internal">
        <lane id=":275451338_4_0" index="0" disallow="tram rail_urban rail rail_electric rail_fast ship container cable_car subway aircraft wheelchair scooter drone" speed="3.65" length="3.23" shape="607.02,4441.52 606.13,4441.59 605.53,4440.92 605.24,4439.50"/>
    </edge>
    <edge id=":275451338_3" function="internal">
        <lane id=":275451338_3_0" index="0" disallow="tram rail_urban rail rail_electric rail_fast ship container cable_car subway aircraft wheelchair scooter drone" speed="27.78" length="17.70" shape="595.61,4454.29 599.08,4449.65 601.70,4445.98 603.69,4442.78 605.24,4439.50"/>
    </edge>
    <edge id=":3918043253_0" function="internal">
        <lane id=":3918043253_0_0" index="0" disallow="tram rail_urban rail rail_electric rail_fast ship container cable_car subway aircraft wheelchair scooter drone" speed="3.65" length="4.67" shape="1404.16,6269.33 1403.81,6270.73 1403.19,6271.38 1402.30,6271.27 1401.15,6270.40"/>
    </edge>
    <edge id=":5257418915_0" function="internal">
        <lane id=":5257418915_0_0" index="0" disallow="tram rail_urban rail rail_electric rail_fast ship container cable_car subway aircraft wheelchair scooter drone" speed="3.65" length="4.67" shape="861.72,4565.66 862.79,4566.62 863.07,4567.47 862.57,4568.21 861.26,4568.83"/>
    </edge>
    <edge id=":5319889277_0" function="internal">
        <lane id=":5319889277_0_0" index="0" disallow="tram rail_urban rail rail_electric rail_fast ship container cable_car subway aircraft wheelchair scooter drone" speed="3.65" length="4.67" shape="3022.43,-0.91 3023.78,-1.44 3024.66,-1.31 3025.09,-0.53 3025.06,0.91"/>
    </edge>
    <edge id=":5472972467_0" function="internal">
        <lane id=":5472972467_0_0" index="0" disallow="tram rail_urban rail rail_electric rail_fast ship container cable_car subway aircraft wheelchair scooter drone" speed="27.78" length="8.35" shape="753.12,4553.38 750.64,4553.53 748.98,4554.40 747.33,4555.28 744.84,4555.47"/>
        <lane id=":5472972467_0_1" index="1" disallow="tram rail_urban rail rail_electric rail_fast ship container cable_car subway aircraft wheelchair scooter drone" speed="27.78" length="8.35" shape="753.12,4553.38 745.23,4552.29"/>
    </edge>
    <edge id=":5472972467_2" function="internal">
        <lane id=":5472972467_2_0" index="0" disallow="tram rail_urban rail rail_electric rail_fast ship container cable_car subway aircraft wheelchair scooter drone" speed="27.78" length="8.87" shape="746.03,4545.91 748.42,4546.76 749.80,4548.07 751.19,4549.37 753.58,4550.21"/>
    </edge>
    <edge id=":6704072632_0" function="internal">
        <lane id=":6704072632_0_0" index="0" allow="pedestrian delivery bicycle" speed="5.56" length="0.50" shape="703.30,4451.64 703.23,4451.51 703.17,4451.43 703.11,4451.35 703.00,4451.25"/>
    </edge>
    <edge id=":6704072633_0" function="internal">
        <lane id=":6704072633_0_0" index="0" allow="pedestrian delivery bicycle" speed="5.56" length="0.10" shape="696.83,4445.32 696.83,4445.32"/>
    </edge>
    <edge id=":6704072634_0" function="internal">
        <lane id=":6704072634_0_0" index="0" allow="pedestrian delivery bicycle" speed="5.56" length="0.10" shape="697.43,4457.59 697.43,4457.59"/>
    </edge>
    <edge id=":6704072635_0" function="internal">
        <lane id=":6704072635_0_0" index="0" allow="pedestrian delivery bicycle" speed="5.56" length="0.44" shape="691.26,4451.62 691.17,4451.53 691.11,4451.46 691.06,4451.38 690.99,4451.27"/>
    </edge>
    <edge id=":6704072636_0" function="internal">
        <lane id=":6704072636_0_0" index="0" allow="pedestrian delivery bicycle" speed="5.56" length="0.93" shape="686.07,4457.56 685.87,4457.37 685.75,4457.22 685.67,4457.05 685.60,4456.78"/>
    </edge>
    <edge id=":6704072637_0" function="internal">