<?xml version="1.0" encoding="UTF-8"?>

<!-- generated on 2024-09-03 01:37:05 by Eclipse SUMO netconvert Version 1.20.0
<configuration xmlns:xsi="http://www.w3.org/2001/XMLSchema-instance" xsi:noNamespaceSchemaLocation="http://sumo.dlr.de/xsd/netconvertConfiguration.xsd">

    <input>
        <osm-files value="train_files/roundabout/easy/osm_files/ra_4.osm"/>
    </input>

    <output>
        <output-file value="train_files/roundabout/easy/outputs/ra_4_dict/ra_4/ra_4.net.xml"/>
    </output>

    <projection>
        <proj.utm value="true"/>
    </projection>

    <building_defaults>
        <default.junctions.keep-clear value="false"/>
    </building_defaults>

</configuration>
-->

<net version="1.20" junctionCornerDetail="5" limitTurnSpeed="5.50" xmlns:xsi="http://www.w3.org/2001/XMLSchema-instance" xsi:noNamespaceSchemaLocation="http://sumo.dlr.de/xsd/net_file.xsd">

    <location netOffset="-460716.59,-5401500.12" convBoundary="0.00,0.00,1121.79,315.13" origBoundary="2.465396,48.765328,2.480690,48.768103" projParameter="+proj=utm +zone=31 +ellps=WGS84 +datum=WGS84 +units=m +no_defs"/>

    <type id="highway.cycleway" priority="1" numLanes="1" speed="5.56" allow="bicycle" oneway="0" width="2.00"/>
    <type id="highway.footway" priority="1" numLanes="1" speed="2.78" allow="pedestrian" oneway="1" width="2.00"/>
    <type id="highway.primary" priority="12" numLanes="2" speed="27.78" disallow="tram rail_urban rail rail_electric rail_fast ship container cable_car subway aircraft wheelchair scooter drone" oneway="0"/>
    <type id="highway.tertiary" priority="10" numLanes="1" speed="22.22" disallow="tram rail_urban rail rail_electric rail_fast ship container cable_car subway aircraft wheelchair scooter drone" oneway="0"/>
    <type id="highway.unclassified" priority="4" numLanes="1" speed="13.89" disallow="tram rail_urban rail rail_electric rail_fast ship container cable_car subway aircraft wheelchair scooter drone" oneway="0"/>

    <edge id=":10237760711_0" function="internal">
        <lane id=":10237760711_0_0" index="0" disallow="tram rail_urban rail rail_electric rail_fast ship container cable_car subway aircraft wheelchair scooter drone" speed="8.33" length="0.30" shape="420.46,184.30 420.76,184.20"/>
        <lane id=":10237760711_0_1" index="1" disallow="tram rail_urban rail rail_electric rail_fast ship container cable_car subway aircraft wheelchair scooter drone" speed="8.33" length="0.30" shape="421.47,187.33 421.75,187.24"/>
        <lane id=":10237760711_0_2" index="2" disallow="tram rail_urban rail rail_electric rail_fast ship container cable_car subway aircraft wheelchair scooter drone" speed="8.33" length="0.30" shape="422.48,190.37 422.75,190.28"/>
    </edge>
    <edge id=":10237760712_0" function="internal">
        <lane id=":10237760712_0_0" index="0" disallow="tram rail_urban rail rail_electric rail_fast ship container cable_car subway aircraft wheelchair scooter drone" speed="13.89" length="0.30" shape="474.25,129.31 474.42,129.56"/>
    </edge>
    <edge id=":10237760714_0" function="internal">
        <lane id=":10237760714_0_0" index="0" disallow="tram rail_urban rail rail_electric rail_fast ship container cable_car subway aircraft wheelchair scooter drone" speed="7.45" length="6.68" shape="480.10,137.03 480.89,137.90 482.16,138.58 483.91,139.06 486.13,139.34"/>
    </edge>
    <edge id=":10237760714_1" function="internal">
        <lane id=":10237760714_1_0" index="0" disallow="tram rail_urban rail rail_electric rail_fast ship container cable_car subway aircraft wheelchair scooter drone" speed="13.89" length="8.16" shape="477.19,140.27 479.81,139.70 481.63,139.34 483.46,139.22 486.13,139.34"/>
        <lane id=":10237760714_1_1" index="1" disallow="tram rail_urban rail rail_electric rail_fast ship container cable_car subway aircraft wheelchair scooter drone" speed="13.89" length="8.16" shape="477.83,143.40 480.20,142.88 481.84,142.55 483.49,142.43 485.89,142.53"/>
        <lane id=":10237760714_1_2" index="2" disallow="tram rail_urban rail rail_electric rail_fast ship container cable_car subway aircraft wheelchair scooter drone" speed="13.89" length="8.16" shape="478.47,146.55 480.58,146.07 482.04,145.76 483.51,145.64 485.66,145.72"/>
    </edge>
    <edge id=":1153531375_0" function="internal">
        <lane id=":1153531375_0_0" index="0" disallow="tram rail_urban rail rail_electric rail_fast ship container cable_car subway aircraft wheelchair scooter drone" speed="13.89" length="6.61" shape="505.69,197.38 506.13,203.97"/>
    </edge>
    <edge id=":1153532471_0" function="internal">
        <lane id=":1153532471_0_0" index="0" disallow="tram rail_urban rail rail_electric rail_fast ship container cable_car subway aircraft wheelchair scooter drone" speed="13.89" length="1.43" shape="524.90,150.32 524.77,150.38 524.68,150.43 524.60,150.48 524.50,150.58"/>
        <lane id=":1153532471_0_1" index="1" disallow="tram rail_urban rail rail_electric rail_fast ship container cable_car subway aircraft wheelchair scooter drone" speed="13.89" length="1.43" shape="523.58,147.40 523.20,147.58 522.94,147.72 522.71,147.89 522.38,148.17"/>
        <lane id=":1153532471_0_2" index="2" disallow="tram rail_urban rail rail_electric rail_fast ship container cable_car subway aircraft wheelchair scooter drone" speed="13.89" length="1.43" shape="522.27,144.48 521.63,144.78 521.20,145.01 520.81,145.31 520.27,145.77"/>
    </edge>
    <edge id=":1192719156_0" function="internal">
        <lane id=":1192719156_0_0" index="0" disallow="tram rail_urban rail rail_electric rail_fast ship container cable_car subway aircraft wheelchair scooter drone" speed="13.89" length="0.44" shape="514.48,164.72 514.52,164.93 514.55,165.08 514.57,165.23 514.59,165.45"/>
        <lane id=":1192719156_0_1" index="1" disallow="tram rail_urban rail rail_electric rail_fast ship container cable_car subway aircraft wheelchair scooter drone" speed="13.89" length="0.44" shape="511.34,165.37 511.37,165.50 511.38,165.59 511.40,165.68 511.41,165.81"/>
        <lane id=":1192719156_0_2" index="2" disallow="tram rail_urban rail rail_electric rail_fast ship container cable_car subway aircraft wheelchair scooter drone" speed="13.89" length="0.44" shape="508.21,166.02 508.22,166.06 508.22,166.09 508.23,166.12 508.23,166.17"/>
    </edge>
    <edge id=":1214943442_0" function="internal">
        <lane id=":1214943442_0_0" index="0" disallow="tram rail_urban rail rail_electric rail_fast ship container cable_car subway aircraft wheelchair scooter drone" speed="13.89" length="1.09" shape="454.82,163.23 454.88,162.69 454.95,162.33 455.05,161.97 455.22,161.47"/>
        <lane id=":1214943442_0_1" index="1" disallow="tram rail_urban rail rail_electric rail_fast ship container cable_car subway aircraft wheelchair scooter drone" speed="13.89" length="1.09" shape="458.00,163.57 458.04,163.25 458.08,163.04 458.14,162.82 458.24,162.52"/>
        <lane id=":1214943442_0_2" index="2" disallow="tram rail_urban rail rail_electric rail_fast ship container cable_car subway aircraft wheelchair scooter drone" speed="13.89" length="1.09" shape="461.18,163.92 461.20,163.81 461.21,163.74 461.23,163.67 461.26,163.57"/>
    </edge>
    <edge id=":2470886208_0" function="internal">
        <lane id=":2470886208_0_0" index="0" disallow="tram rail_urban rail rail_electric rail_fast ship container cable_car subway aircraft wheelchair scooter drone" speed="8.33" length="0.29" shape="423.35,183.35 423.44,183.31"/>
        <lane id=":2470886208_0_1" index="1" disallow="tram rail_urban rail rail_electric rail_fast ship container cable_car subway aircraft wheelchair scooter drone" speed="8.33" length="0.29" shape="424.35,186.39 424.62,186.29"/>
        <lane id=":2470886208_0_2" index="2" disallow="tram rail_urban rail rail_electric rail_fast ship container cable_car subway aircraft wheelchair scooter drone" speed="8.33" length="0.29" shape="425.35,189.43 425.80,189.26"/>
    </edge>
    <edge id=":2470886213_0" function="internal">
        <lane id=":2470886213_0_0" index="0" disallow="tram rail_urban rail rail_electric rail_fast ship container cable_car subway aircraft wheelchair scooter drone" speed="13.89" length="0.20" shape="518.66,135.82 518.95,135.71"/>
        <lane id=":2470886213_0_1" index="1" disallow="tram rail_urban rail rail_electric rail_fast ship container cable_car subway aircraft wheelchair scooter drone" speed="13.89" length="0.20" shape="519.94,138.76 520.03,138.72"/>
    </edge>
    <edge id=":2478881231_0" function="internal">
        <lane id=":2478881231_0_0" index="0" disallow="tram rail_urban rail rail_electric rail_fast ship container cable_car subway aircraft wheelchair scooter drone" speed="13.89" length="13.07" shape="456.20,180.02 454.81,176.10 454.16,173.30 454.10,170.43 454.49,166.29"/>
        <lane id=":2478881231_0_1" index="1" disallow="tram rail_urban rail rail_electric rail_fast ship container cable_car subway aircraft wheelchair scooter drone" speed="13.89" length="13.07" shape="459.45,179.57 458.11,175.88 457.44,173.24 457.33,170.54 457.67,166.64"/>
        <lane id=":2478881231_0_2" index="2" disallow="tram rail_urban rail rail_electric rail_fast ship container cable_car subway aircraft wheelchair scooter drone" speed="13.89" length="13.07" shape="462.49,178.58 461.29,175.27 460.67,172.91 460.55,170.48 460.85,166.99"/>
    </edge>
    <edge id=":2478881231_3" function="internal">
        <lane id=":2478881231_3_0" index="0" disallow="tram rail_urban rail rail_electric rail_fast ship container cable_car subway aircraft wheelchair scooter drone" speed="9.65" length="12.82" shape="447.28,173.59 450.30,171.56 452.52,169.66 453.91,167.91 454.49,166.29"/>
        <lane id=":2478881231_3_1" index="1" disallow="tram rail_urban rail rail_electric rail_fast ship container cable_car subway aircraft wheelchair scooter drone" speed="10.61" length="12.82" shape="449.47,176.00 452.87,173.65 455.37,171.31 456.97,168.97 457.67,166.64"/>
        <lane id=":2478881231_3_2" index="2" disallow="tram rail_urban rail rail_electric rail_fast ship container cable_car subway aircraft wheelchair scooter drone" speed="11.11" length="12.82" shape="451.67,178.40 455.43,175.74 458.22,172.95 460.02,170.03 460.85,166.99"/>
    </edge>
    <edge id=":2478884802_0" function="internal">
        <lane id=":2478884802_0_0" index="0" disallow="tram rail_urban rail rail_electric rail_fast ship container cable_car subway aircraft wheelchair scooter drone" speed="13.89" length="0.21" shape="475.38,130.92 475.42,130.97 475.44,131.01 475.47,131.04 475.51,131.08"/>
    </edge>
    <edge id=":2478884803_0" function="internal">
        <lane id=":2478884803_0_0" index="0" disallow="tram rail_urban rail rail_electric rail_fast ship container cable_car subway aircraft wheelchair scooter drone" speed="4.48" length="6.72" shape="467.48,124.90 467.46,122.60 467.93,121.66 468.91,122.07 470.38,123.84"/>
    </edge>
    <edge id=":2478884825_0" function="internal">
        <lane id=":2478884825_0_0" index="0" allow="bicycle" speed="3.65" length="3.27" width="2.00" shape="482.81,134.98 481.55,135.22 480.75,135.57 480.41,136.01 480.52,136.56"/>
    </edge>
    <edge id=":2478884825_1" function="internal">
        <lane id=":2478884825_1_0" index="0" allow="bicycle" speed="5.56" length="8.23" width="2.00" shape="482.81,134.98 480.38,135.31 478.74,135.59 477.11,135.98 474.75,136.62"/>
    </edge>
    <edge id=":2478884825_2" function="internal">
        <lane id=":2478884825_2_0" index="0" allow="bicycle" speed="2.89" length="2.92" width="2.00" shape="482.81,134.98 482.00,134.58 481.68,134.11 481.87,133.59 482.55,132.99"/>
    </edge>
    <edge id=":2478884825_3" function="internal">
        <lane id=":2478884825_3_0" index="0" allow="bicycle" speed="7.83" length="7.18" width="2.00" shape="476.02,130.75 477.39,131.93 478.93,132.69 480.65,133.05 482.55,132.99"/>
    </edge>
    <edge id=":2478884825_4" function="internal">
        <lane id=":2478884825_4_0" index="0" disallow="tram rail_urban rail rail_electric rail_fast ship container cable_car subway aircraft wheelchair scooter drone" speed="13.89" length="7.24" shape="475.58,131.16 477.05,132.72 478.04,133.82 478.90,135.01 480.00,136.85"/>
    </edge>
    <edge id=":2478884825_5" function="internal">
        <lane id=":2478884825_5_0" index="0" allow="bicycle" speed="4.99" length="6.67" width="2.00" shape="475.14,131.57 476.48,133.36 476.87,134.80 476.29,135.89 474.75,136.62"/>
    </edge>
    <edge id=":2478884825_6" function="internal">
        <lane id=":2478884825_6_0" index="0" allow="bicycle" speed="5.56" length="8.51" width="2.00" shape="474.22,134.69 476.66,134.03 478.34,133.63 480.04,133.33 482.55,132.99"/>
    </edge>
    <edge id=":2478884825_7" function="internal">
        <lane id=":2478884825_7_0" index="0" allow="bicycle" speed="6.30" length="7.13" width="2.00" shape="474.22,134.69 476.32,134.34 478.06,134.54 479.46,135.27 480.52,136.56"/>
    </edge>
    <edge id=":2478884825_8" function="internal">
        <lane id=":2478884825_8_0" index="0" allow="bicycle" speed="2.89" length="2.92" width="2.00" shape="474.22,134.69 475.08,134.97 475.45,135.39 475.34,135.94 474.75,136.62"/>
    </edge>
    <edge id=":2478884829_0" function="internal">
        <lane id=":2478884829_0_0" index="0" allow="bicycle" speed="3.90" length="3.51" width="2.00" shape="468.26,140.13 468.00,139.42 467.45,139.17 466.62,139.36 465.49,140.00"/>
    </edge>
    <edge id=":2478884829_1" function="internal">
        <lane id=":2478884829_1_0" index="0" disallow="tram rail_urban rail rail_electric rail_fast ship container cable_car subway aircraft wheelchair scooter drone" speed="13.89" length="6.32" shape="468.85,140.05 468.34,133.76"/>
    </edge>
    <edge id=":2478884829_2" function="internal">
        <lane id=":2478884829_2_0" index="0" allow="bicycle" speed="5.57" length="5.65" width="2.00" shape="469.45,139.98 469.41,138.24 469.77,136.90 470.54,135.94 471.70,135.37"/>
    </edge>
    <edge id=":2478884829_3" function="internal">
        <lane id=":2478884829_3_0" index="0" allow="bicycle" speed="5.56" length="7.32" width="2.00" shape="472.23,137.30 470.12,137.84 468.67,138.24 467.32,138.85 465.49,140.00"/>
    </edge>
    <edge id=":2478884829_4" function="internal">
        <lane id=":2478884829_4_0" index="0" allow="bicycle" speed="5.25" length="6.88" width="2.00" shape="472.23,137.30 470.35,137.52 468.97,137.01 468.10,135.76 467.74,133.79"/>
    </edge>
    <edge id=":2478884829_5" function="internal">
        <lane id=":2478884829_5_0" index="0" allow="bicycle" speed="2.89" length="2.92" width="2.00" shape="472.23,137.30 471.37,137.02 471.00,136.60 471.11,136.05 471.70,135.37"/>
    </edge>
    <edge id=":2478884829_6" function="internal">
        <lane id=":2478884829_6_0" index="0" allow="bicycle" speed="6.61" length="5.65" width="2.00" shape="464.58,138.20 466.00,137.09 467.00,135.98 467.58,134.88 467.74,133.79"/>
    </edge>
    <edge id=":2478884829_7" function="internal">
        <lane id=":2478884829_7_0" index="0" allow="bicycle" speed="5.56" length="7.73" width="2.00" shape="464.58,138.20 466.50,136.99 467.94,136.36 469.47,135.94 471.70,135.37"/>
    </edge>
    <edge id=":2478884829_8" function="internal">
        <lane id=":2478884829_8_0" index="0" allow="bicycle" speed="2.89" length="2.94" width="2.00" shape="464.58,138.20 465.48,138.31 465.93,138.64 465.94,139.21 465.49,140.00"/>
    </edge>
    <edge id=":2479387654_0" function="internal">
        <lane id=":2479387654_0_0" index="0" disallow="tram rail_urban rail rail_electric rail_fast ship container cable_car subway aircraft wheelchair scooter drone" speed="9.33" length="14.06" shape="520.00,154.53 517.23,157.28 515.38,159.87 514.45,162.28 514.44,164.54"/>
        <lane id=":2479387654_0_1" index="1" disallow="tram rail_urban rail rail_electric rail_fast ship container cable_car subway aircraft wheelchair scooter drone" speed="10.09" length="14.06" shape="516.89,153.00 513.97,156.02 512.06,159.06 511.17,162.11 511.30,165.19"/>
        <lane id=":2479387654_0_2" index="2" disallow="tram rail_urban rail rail_electric rail_fast ship container cable_car subway aircraft wheelchair scooter drone" speed="10.80" length="14.06" shape="513.78,151.47 510.70,154.76 508.74,158.25 507.90,161.94 508.17,165.84"/>
    </edge>
    <edge id=":2479387654_3" function="internal">
        <lane id=":2479387654_3_0" index="0" disallow="tram rail_urban rail rail_electric rail_fast ship container cable_car subway aircraft wheelchair scooter drone" speed="13.89" length="14.34" shape="508.52,151.12 511.23,154.57 512.70,157.24 513.55,160.20 514.44,164.54"/>
        <lane id=":2479387654_3_1" index="1" disallow="tram rail_urban rail rail_electric rail_fast ship container cable_car subway aircraft wheelchair scooter drone" speed="13.89" length="14.34" shape="505.29,152.27 507.97,155.60 509.48,158.15 510.40,160.99 511.30,165.19"/>
        <lane id=":2479387654_3_2" index="2" disallow="tram rail_urban rail rail_electric rail_fast ship container cable_car subway aircraft wheelchair scooter drone" speed="13.89" length="14.34" shape="502.42,153.82 504.94,156.93 506.40,159.29 507.31,161.92 508.17,165.84"/>
    </edge>
    <edge id=":2479387655_0" function="internal">
        <lane id=":2479387655_0_0" index="0" disallow="tram rail_urban rail rail_electric rail_fast ship container cable_car subway aircraft wheelchair scooter drone" speed="13.89" length="0.45" shape="514.73,166.67 514.75,166.89 514.77,167.04 514.77,167.20 514.78,167.42"/>
        <lane id=":2479387655_0_1" index="1" disallow="tram rail_urban rail rail_electric rail_fast ship container cable_car subway aircraft wheelchair scooter drone" speed="13.89" length="0.45" shape="511.55,167.03 511.56,167.16 511.57,167.25 511.58,167.34 511.58,167.48"/>
        <lane id=":2479387655_0_2" index="2" disallow="tram rail_urban rail rail_electric rail_fast ship container cable_car subway aircraft wheelchair scooter drone" speed="13.89" length="0.45" shape="508.37,167.39 508.37,167.43 508.38,167.46 508.38,167.49 508.38,167.54"/>
    </edge>
    <edge id=":2479387657_0" function="internal">
        <lane id=":2479387657_0_0" index="0" disallow="tram rail_urban rail rail_electric rail_fast ship container cable_car subway aircraft wheelchair scooter drone" speed="9.94" length="9.00" shape="463.95,191.65 462.63,190.81 460.74,190.26 458.30,189.97 455.29,189.96"/>
        <lane id=":2479387657_0_1" index="1" disallow="tram rail_urban rail rail_electric rail_fast ship container cable_car subway aircraft wheelchair scooter drone" speed="10.59" length="10.26" shape="463.95,191.65 461.38,189.46 459.05,187.92 456.98,187.02 455.17,186.76"/>
    </edge>
    <edge id=":2479387657_2" function="internal">
        <lane id=":2479387657_2_0" index="0" disallow="tram rail_urban rail rail_electric rail_fast ship container cable_car subway aircraft wheelchair scooter drone" speed="13.89" length="10.93" shape="463.95,191.65 461.42,189.36 459.74,187.68 458.47,185.72 457.16,182.61"/>
        <lane id=":2479387657_2_1" index="1" disallow="tram rail_urban rail rail_electric rail_fast ship container cable_car subway aircraft wheelchair scooter drone" speed="13.89" length="10.93" shape="466.13,189.30 463.71,187.06 462.15,185.39 460.99,183.44 459.76,180.41"/>
        <lane id=":2479387657_2_2" index="2" disallow="tram rail_urban rail rail_electric rail_fast ship container cable_car subway aircraft wheelchair scooter drone" speed="13.89" length="10.93" shape="468.30,186.95 466.10,184.90 464.71,183.34 463.67,181.54 462.56,178.76"/>
    </edge>
    <edge id=":2496320780_0" function="internal">
        <lane id=":2496320780_0_0" index="0" disallow="tram rail_urban rail rail_electric rail_fast ship container cable_car subway aircraft wheelchair scooter drone" speed="13.89" length="0.28" shape="468.32,133.39 468.33,133.67"/>
    </edge>
    <edge id=":2496320821_0" function="internal">
        <lane id=":2496320821_0_0" index="0" disallow="tram rail_urban rail rail_electric rail_fast ship container cable_car subway aircraft wheelchair scooter drone" speed="13.89" length="5.85" shape="489.41,210.62 486.71,205.33"/>
        <lane id=":2496320821_0_1" index="1" disallow="tram rail_urban rail rail_electric rail_fast ship container cable_car subway aircraft wheelchair scooter drone" speed="13.89" length="5.85" shape="492.22,209.09 489.60,203.96"/>
    </edge>
    <edge id=":301266318_0" function="internal">
        <lane id=":301266318_0_0" index="0" disallow="tram rail_urban rail rail_electric rail_fast ship container cable_car subway aircraft wheelchair scooter drone" speed="3.61" length="4.52" shape="544.58,292.41 544.78,293.79 544.46,294.60 543.63,294.83 542.28,294.49"/>
    </edge>
    <edge id=":431399420_0" function="internal">
        <lane id=":431399420_0_0" index="0" disallow="tram rail_urban rail rail_electric rail_fast ship container cable_car subway aircraft wheelchair scooter drone" speed="7.36" length="6.83" shape="465.53,145.90 467.12,144.43 468.21,143.00 468.80,141.61 468.88,140.25"/>
    </edge>
    <edge id=":431399420_1" function="internal">
        <lane id=":431399420_1_0" index="0" disallow="tram rail_urban rail rail_electric rail_fast ship container cable_car subway aircraft wheelchair scooter drone" speed="13.89" length="8.38" shape="465.53,145.90 467.65,144.27 469.20,143.29 470.86,142.47 473.27,141.30"/>
        <lane id=":431399420_1_1" index="1" disallow="tram rail_urban rail rail_electric rail_fast ship container cable_car subway aircraft wheelchair scooter drone" speed="13.89" length="8.38" shape="467.54,148.39 469.50,146.89 470.94,146.00 472.46,145.24 474.70,144.17"/>
        <lane id=":431399420_1_2" index="2" disallow="tram rail_urban rail rail_electric rail_fast ship container cable_car subway aircraft wheelchair scooter drone" speed="13.89" length="8.38" shape="469.54,150.88 471.30,149.38 472.55,148.35 473.94,147.62 476.12,147.03"/>
    </edge>
    <edge id=":431399475_0" function="internal">
        <lane id=":431399475_0_0" index="0" disallow="tram rail_urban rail rail_electric rail_fast ship container cable_car subway aircraft wheelchair scooter drone" speed="8.02" length="8.14" shape="486.49,204.87 485.22,202.58 483.87,200.89 482.45,199.80 480.95,199.32"/>
        <lane id=":431399475_0_1" index="1" disallow="tram rail_urban rail rail_electric rail_fast ship container cable_car subway aircraft wheelchair scooter drone" speed="9.39" length="11.36" shape="489.38,203.49 487.66,200.49 485.75,198.26 483.64,196.81 481.33,196.14"/>
    </edge>
    <edge id=":431399475_2" function="internal">
        <lane id=":431399475_2_0" index="0" disallow="tram rail_urban rail rail_electric rail_fast ship container cable_car subway aircraft wheelchair scooter drone" speed="13.89" length="10.40" shape="491.86,198.65 488.71,199.51 486.48,199.81 484.21,199.71 480.95,199.32"/>
        <lane id=":431399475_2_1" index="1" disallow="tram rail_urban rail rail_electric rail_fast ship container cable_car subway aircraft wheelchair scooter drone" speed="13.89" length="10.40" shape="491.57,195.40 488.61,196.22 486.51,196.55 484.39,196.49 481.33,196.14"/>
        <lane id=":431399475_2_2" index="2" disallow="tram rail_urban rail rail_electric rail_fast ship container cable_car subway aircraft wheelchair scooter drone" speed="13.89" length="10.40" shape="491.27,192.15 488.51,192.94 486.55,193.28 484.56,193.27 481.70,192.96"/>
    </edge>
    <edge id=":431399476_0" function="internal">
        <lane id=":431399476_0_0" index="0" disallow="tram rail_urban rail rail_electric rail_fast ship container cable_car subway aircraft wheelchair scooter drone" speed="9.51" length="5.83" shape="506.67,190.48 505.82,191.94 505.52,193.08 505.54,194.31 505.65,196.05"/>
    </edge>
    <edge id=":431399476_1" function="internal">
        <lane id=":431399476_1_0" index="0" disallow="tram rail_urban rail rail_electric rail_fast ship container cable_car subway aircraft wheelchair scooter drone" speed="13.67" length="5.71" shape="506.67,190.48 505.53,191.95 504.53,192.77 503.36,193.40 501.68,194.28"/>
        <lane id=":431399476_1_1" index="1" disallow="tram rail_urban rail rail_electric rail_fast ship container cable_car subway aircraft wheelchair scooter drone" speed="12.94" length="5.71" shape="504.03,188.67 502.99,189.95 502.06,190.62 500.96,191.12 499.44,191.87"/>
        <lane id=":431399476_1_2" index="2" disallow="tram rail_urban rail rail_electric rail_fast ship container cable_car subway aircraft wheelchair scooter drone" speed="12.20" length="5.71" shape="501.40,186.86 500.45,187.95 499.58,188.47 498.56,188.83 497.20,189.46"/>
    </edge>
    <edge id=":431399479_0" function="internal">
        <lane id=":431399479_0_0" index="0" disallow="tram rail_urban rail rail_electric rail_fast ship container cable_car subway aircraft wheelchair scooter drone" speed="9.53" length="8.13" shape="498.53,142.78 500.74,143.35 502.35,143.12 503.95,142.33 506.13,141.25"/>
        <lane id=":431399479_0_1" index="1" disallow="tram rail_urban rail rail_electric rail_fast ship container cable_car subway aircraft wheelchair scooter drone" speed="10.22" length="9.42" shape="498.53,142.78 501.10,143.93 502.99,144.76 504.86,144.94 507.40,144.18"/>
    </edge>
    <edge id=":431399479_2" function="internal">
        <lane id=":431399479_2_0" index="0" disallow="tram rail_urban rail rail_electric rail_fast ship container cable_car subway aircraft wheelchair scooter drone" speed="13.89" length="9.23" shape="498.53,142.78 501.32,143.96 503.10,145.06 504.62,146.54 506.60,148.86"/>
        <lane id=":431399479_2_1" index="1" disallow="tram rail_urban rail rail_electric rail_fast ship container cable_car subway aircraft wheelchair scooter drone" speed="13.89" length="9.23" shape="497.37,145.76 499.90,146.86 501.49,147.92 502.83,149.33 504.62,151.47"/>
        <lane id=":431399479_2_2" index="2" disallow="tram rail_urban rail rail_electric rail_fast ship container cable_car subway aircraft wheelchair scooter drone" speed="13.82" length="9.23" shape="496.21,148.74 498.34,149.69 499.67,150.62 500.78,151.84 502.29,153.67"/>
    </edge>
    <edge id=":9580948240_0" function="internal">
        <lane id=":9580948240_0_0" index="0" allow="bicycle" speed="2.89" length="2.92" width="2.00" shape="772.53,38.21 773.40,38.43 773.81,38.82 773.74,39.37 773.20,40.10"/>
    </edge>
    <edge id=":965812520_0" function="internal">
        <lane id=":965812520_0_0" index="0" allow="bicycle" speed="2.89" length="2.92" width="2.00" shape="121.02,274.50 120.14,274.66 119.61,274.48 119.44,273.94 119.63,273.06"/>
    </edge>
    <edge id=":9742154737_0" function="internal">
        <lane id=":9742154737_0_0" index="0" disallow="tram rail_urban rail rail_electric rail_fast ship container cable_car subway aircraft wheelchair scooter drone" speed="13.89" length="0.10" shape="527.07,149.34 527.07,149.34"/>
        <lane id=":9742154737_0_1" index="1" disallow="tram rail_urban rail rail_electric rail_fast ship container cable_car subway aircraft wheelchair scooter drone" speed="13.89" length="0.10" shape="525.76,146.42 525.76,146.42"/>
        <lane id=":9742154737_0_2" index="2" disallow="tram rail_urban rail rail_electric rail_fast ship container cable_car subway aircraft wheelchair scooter drone" speed="13.89" length="0.10" shape="524.45,143.50 524.45,143.50"/>
    </edge>

    <edge id="-167084275#0" from="2478884829" to="965812520" priority="1" type="highway.cycleway" shape="468.51,137.28 465.32,138.90 463.22,140.34 461.12,142.27 456.33,147.18 455.06,148.31 453.21,149.63 447.40,151.88 420.16,161.55 362.97,181.46 270.71,214.73 166.58,251.57 129.11,265.29 120.33,273.78">
        <lane id="-167084275#0_0" index="0" allow="bicycle" speed="5.56" length="371.92" width="2.00" shape="465.49,140.00 463.84,141.13 461.81,142.99 457.02,147.90 455.69,149.10 453.68,150.51 447.75,152.82 420.49,162.49 363.30,182.40 271.04,215.67 166.92,252.51 129.65,266.16 121.02,274.50"/>
    </edge>
    <edge id="-167084275#1" from="2478884825" to="2478884829" priority="1" type="highway.cycleway">
        <lane id="-167084275#1_0" index="0" allow="bicycle" speed="5.56" length="2.61" width="2.00" shape="474.75,136.62 472.23,137.30"/>
    </edge>
    <edge id="-167084275#2" from="9580948240" to="2478884825" priority="1" type="highway.cycleway" shape="772.86,39.15 737.05,51.83 723.95,56.45 619.22,93.61 516.82,131.04 504.77,135.38 502.73,135.82 499.92,136.08 497.51,135.82 494.82,135.03 489.93,133.86 484.78,133.71 478.68,134.51">
        <lane id="-167084275#2_0" index="0" allow="bicycle" speed="5.56" length="307.49" width="2.00" shape="773.20,40.10 737.39,52.77 724.29,57.40 619.56,94.55 517.16,131.98 505.05,136.35 502.88,136.81 499.92,137.09 497.31,136.81 494.56,136.00 489.80,134.86 484.83,134.71 482.81,134.98"/>
    </edge>
    <edge id="105490279#0" from="431399479" to="2470886213" priority="12" type="highway.primary" spreadType="center">
        <lane id="105490279#0_0" index="0" disallow="tram rail_urban rail rail_electric rail_fast ship container cable_car subway aircraft wheelchair scooter drone" speed="13.89" length="13.66" shape="506.13,141.25 518.66,135.82"/>
        <lane id="105490279#0_1" index="1" disallow="tram rail_urban rail rail_electric rail_fast ship container cable_car subway aircraft wheelchair scooter drone" speed="13.89" length="13.66" shape="507.40,144.18 519.94,138.76"/>
        <param key="ref" value="D 1"/>
    </edge>
    <edge id="105490279#1" from="2470886213" to="9580948242" priority="12" type="highway.primary" spreadType="center" shape="519.39,137.25 537.00,130.91 609.68,103.94 689.11,75.94 782.18,43.17">
        <lane id="105490279#1_0" index="0" disallow="tram rail_urban rail rail_electric rail_fast ship container cable_car subway aircraft wheelchair scooter drone" speed="13.89" length="279.03" shape="518.95,135.71 536.45,129.41 609.14,102.44 688.58,74.43 781.65,41.66"/>