<?xml version="1.0" encoding="UTF-8"?>

<!-- generated on 2024-09-03 01:38:28 by Eclipse SUMO netconvert Version 1.20.0
<configuration xmlns:xsi="http://www.w3.org/2001/XMLSchema-instance" xsi:noNamespaceSchemaLocation="http://sumo.dlr.de/xsd/netconvertConfiguration.xsd">

    <input>
        <osm-files value="train_files/roundabout/hard/osm_files/map(64).osm"/>
    </input>

    <output>
        <output-file value="train_files/roundabout/hard/outputs/map(64)_dict/map(64)/map(64).net.xml"/>
    </output>

    <projection>
        <proj.utm value="true"/>
    </projection>

    <building_defaults>
        <default.junctions.keep-clear value="false"/>
    </building_defaults>

</configuration>
-->

<net version="1.20" junctionCornerDetail="5" limitTurnSpeed="5.50" xmlns:xsi="http://www.w3.org/2001/XMLSchema-instance" xsi:noNamespaceSchemaLocation="http://sumo.dlr.de/xsd/net_file.xsd">

    <location netOffset="-441920.15,-5423497.52" convBoundary="0.00,0.00,728.25,1588.99" origBoundary="2.206541,48.961664,2.216265,48.976025" projParameter="+proj=utm +zone=31 +ellps=WGS84 +datum=WGS84 +units=m +no_defs"/>

    <type id="highway.cycleway" priority="1" numLanes="1" speed="5.56" allow="bicycle" oneway="0" width="2.00"/>
    <type id="highway.secondary" priority="11" numLanes="1" speed="27.78" disallow="tram rail_urban rail rail_electric rail_fast ship container cable_car subway aircraft wheelchair scooter drone" oneway="0"/>
    <type id="highway.service" priority="1" numLanes="1" speed="5.56" allow="pedestrian delivery bicycle" oneway="0"/>
    <type id="highway.track" priority="1" numLanes="1" speed="5.56" allow="pedestrian motorcycle moped bicycle" oneway="0"/>
    <type id="highway.unclassified" priority="4" numLanes="1" speed="13.89" disallow="tram rail_urban rail rail_electric rail_fast ship container cable_car subway aircraft wheelchair scooter drone" oneway="0"/>

    <edge id=":10669179353_0" function="internal">
        <lane id=":10669179353_0_0" index="0" allow="bicycle" speed="9.72" length="12.97" width="2.00" shape="287.77,385.75 281.89,397.31"/>
    </edge>
    <edge id=":10669179353_1" function="internal">
        <lane id=":10669179353_1_0" index="0" allow="bicycle" speed="4.59" length="9.21" width="2.00" shape="287.77,385.75 286.02,387.24 283.75,387.03 281.98,385.55 281.72,383.23"/>
    </edge>
    <edge id=":10669179353_2" function="internal">
        <lane id=":10669179353_2_0" index="0" disallow="tram rail_urban rail rail_electric rail_fast ship container cable_car subway aircraft wheelchair scooter drone" speed="13.89" length="13.32" shape="285.34,384.40 281.32,397.11"/>
    </edge>
    <edge id=":10669179353_3" function="internal">
        <lane id=":10669179353_3_0" index="0" disallow="tram rail_urban rail rail_electric rail_fast ship container cable_car subway aircraft wheelchair scooter drone" speed="13.89" length="13.21" shape="278.31,396.02 282.29,383.42"/>
    </edge>
    <edge id=":10929369293_0" function="internal">
        <lane id=":10929369293_0_0" index="0" allow="pedestrian delivery bicycle" speed="5.56" length="54.91" shape="265.58,334.41 246.63,326.61 240.56,323.42 247.37,324.84 267.07,330.88"/>
    </edge>
    <edge id=":1812165737_0" function="internal">
        <lane id=":1812165737_0_0" index="0" disallow="tram rail_urban rail rail_electric rail_fast ship container cable_car subway aircraft wheelchair scooter drone" speed="3.65" length="4.67" shape="729.00,1587.58 729.68,1588.85 729.66,1589.75 728.93,1590.26 727.49,1590.40"/>
    </edge>
    <edge id=":265778529_0" function="internal">
        <lane id=":265778529_0_0" index="0" disallow="tram rail_urban rail rail_electric rail_fast ship container cable_car subway aircraft wheelchair scooter drone" speed="3.65" length="4.67" shape="509.51,223.43 510.95,223.39 511.74,223.81 511.87,224.69 511.36,226.04"/>
    </edge>
    <edge id=":265778567_0" function="internal">
        <lane id=":265778567_0_0" index="0" disallow="tram rail_urban rail rail_electric rail_fast ship container cable_car subway aircraft wheelchair scooter drone" speed="13.89" length="4.15" shape="271.49,416.18 268.17,418.68"/>
    </edge>
    <edge id=":265778567_1" function="internal">
        <lane id=":265778567_1_0" index="0" allow="pedestrian delivery bicycle" speed="5.66" length="2.86" shape="271.49,416.18 270.78,416.21 269.73,415.41 269.20,414.77"/>
    </edge>
    <edge id=":265778567_7" function="internal">
        <lane id=":265778567_7_0" index="0" allow="pedestrian delivery bicycle" speed="5.66" length="4.36" shape="269.20,414.77 268.34,413.76 266.61,411.27"/>
    </edge>
    <edge id=":265778567_2" function="internal">
        <lane id=":265778567_2_0" index="0" allow="pedestrian delivery bicycle" speed="4.53" length="4.22" shape="269.29,409.52 269.41,413.74"/>
    </edge>
    <edge id=":265778567_3" function="internal">
        <lane id=":265778567_3_0" index="0" allow="pedestrian delivery bicycle" speed="7.11" length="10.35" shape="269.29,409.52 270.58,412.17 270.82,414.58 270.02,416.75 268.17,418.68"/>
    </edge>
    <edge id=":265778567_4" function="internal">
        <lane id=":265778567_4_0" index="0" allow="pedestrian delivery bicycle" speed="3.65" length="4.67" shape="269.29,409.52 269.28,410.96 268.83,411.74 267.94,411.84 266.61,411.27"/>
    </edge>
    <edge id=":265778567_5" function="internal">
        <lane id=":265778567_5_0" index="0" allow="pedestrian delivery bicycle" speed="5.36" length="5.47" shape="266.23,416.14 267.15,415.15 267.51,414.01 267.34,412.72 266.61,411.27"/>
    </edge>
    <edge id=":265778567_6" function="internal">
        <lane id=":265778567_6_0" index="0" disallow="tram rail_urban rail rail_electric rail_fast ship container cable_car subway aircraft wheelchair scooter drone" speed="13.89" length="3.98" shape="266.23,416.14 269.41,413.74"/>
    </edge>
    <edge id=":321651579_0" function="internal">
        <lane id=":321651579_0_0" index="0" disallow="tram rail_urban rail rail_electric rail_fast ship container cable_car subway aircraft wheelchair scooter drone" speed="3.65" length="4.67" shape="208.79,464.83 207.35,464.94 206.54,464.56 206.37,463.68 206.82,462.31"/>
    </edge>
    <edge id=":3803201322_0" function="internal">
        <lane id=":3803201322_0_0" index="0" disallow="tram rail_urban rail rail_electric rail_fast ship container cable_car subway aircraft wheelchair scooter drone" speed="3.65" length="4.67" shape="-1.33,0.89 -1.33,-0.55 -0.89,-1.33 -0.01,-1.44 1.33,-0.89"/>
    </edge>
    <edge id=":4187486228_0" function="internal">
        <lane id=":4187486228_0_0" index="0" disallow="tram rail_urban rail rail_electric rail_fast ship container cable_car subway aircraft wheelchair scooter drone" speed="13.89" length="12.85" shape="371.81,334.91 369.21,337.12 366.83,338.96 364.38,340.71 361.57,342.65"/>
    </edge>
    <edge id=":4187486228_1" function="internal">
        <lane id=":4187486228_1_0" index="0" allow="pedestrian motorcycle moped bicycle" speed="7.29" length="4.51" shape="371.81,334.91 368.45,337.17 367.99,337.25"/>
    </edge>
    <edge id=":4187486228_2" function="internal">
        <lane id=":4187486228_2_0" index="0" disallow="tram rail_urban rail rail_electric rail_fast ship container cable_car subway aircraft wheelchair scooter drone" speed="3.66" length="1.45" shape="371.81,334.91 370.36,334.93"/>
    </edge>
    <edge id=":4187486228_9" function="internal">
        <lane id=":4187486228_9_0" index="0" allow="pedestrian motorcycle moped bicycle" speed="7.29" length="9.14" shape="367.99,337.25 365.47,337.69 362.86,336.47 360.63,333.51"/>
    </edge>
    <edge id=":4187486228_10" function="internal">
        <lane id=":4187486228_10_0" index="0" disallow="tram rail_urban rail rail_electric rail_fast ship container cable_car subway aircraft wheelchair scooter drone" speed="3.66" length="3.26" shape="370.36,334.93 369.57,334.49 369.46,333.59 370.00,332.25"/>
    </edge>
    <edge id=":4187486228_3" function="internal">
        <lane id=":4187486228_3_0" index="0" allow="pedestrian motorcycle moped bicycle" speed="5.71" length="7.89" shape="363.46,332.01 364.68,333.55 366.18,334.11 367.96,333.67 370.00,332.25"/>
    </edge>
    <edge id=":4187486228_4" function="internal">
        <lane id=":4187486228_4_0" index="0" allow="pedestrian motorcycle moped bicycle" speed="7.73" length="12.03" shape="363.46,332.01 364.71,335.23 364.81,338.08 363.76,340.55 361.57,342.65"/>
    </edge>
    <edge id=":4187486228_5" function="internal">
        <lane id=":4187486228_5_0" index="0" allow="pedestrian motorcycle moped bicycle" speed="3.65" length="4.67" shape="363.46,332.01 363.32,333.44 362.80,334.17 361.91,334.19 360.63,333.51"/>
    </edge>
    <edge id=":4187486228_6" function="internal">
        <lane id=":4187486228_6_0" index="0" allow="pedestrian motorcycle moped bicycle" speed="6.16" length="7.29" shape="359.75,340.02 361.00,338.79 361.56,337.29 361.44,335.54 360.63,333.51"/>
    </edge>
    <edge id=":4187486228_7" function="internal">
        <lane id=":4187486228_7_0" index="0" disallow="tram rail_urban rail rail_electric rail_fast ship container cable_car subway aircraft wheelchair scooter drone" speed="13.89" length="12.87" shape="359.75,340.02 362.56,338.07 365.01,336.31 367.40,334.45 370.00,332.25"/>
    </edge>
    <edge id=":4187486228_8" function="internal">
        <lane id=":4187486228_8_0" index="0" disallow="tram rail_urban rail rail_electric rail_fast ship container cable_car subway aircraft wheelchair scooter drone" speed="3.65" length="1.44" shape="359.75,340.02 361.20,339.99"/>
    </edge>
    <edge id=":4187486228_11" function="internal">
        <lane id=":4187486228_11_0" index="0" disallow="tram rail_urban rail rail_electric rail_fast ship container cable_car subway aircraft wheelchair scooter drone" speed="3.65" length="3.23" shape="361.20,339.99 361.98,340.43 362.10,341.31 361.57,342.65"/>
    </edge>
    <edge id=":4763083225_0" function="internal">
        <lane id=":4763083225_0_0" index="0" disallow="tram rail_urban rail rail_electric rail_fast ship container cable_car subway aircraft wheelchair scooter drone" speed="5.30" length="5.80" shape="275.23,420.42 274.52,419.32 273.49,417.70 272.43,416.35 271.64,416.05"/>
    </edge>
    <edge id=":4763083225_1" function="internal">
        <lane id=":4763083225_1_0" index="0" disallow="tram rail_urban rail rail_electric rail_fast ship container cable_car subway aircraft wheelchair scooter drone" speed="8.80" length="12.87" shape="275.23,420.42 273.24,417.27 272.31,414.23 272.45,411.31 273.65,408.52"/>
    </edge>
    <edge id=":4763083225_2" function="internal">
        <lane id=":4763083225_2_0" index="0" disallow="tram rail_urban rail rail_electric rail_fast ship container cable_car subway aircraft wheelchair scooter drone" speed="3.65" length="4.67" shape="275.23,420.42 275.12,418.98 275.50,418.18 276.38,418.00 277.75,418.44"/>
    </edge>
    <edge id=":4763083225_3" function="internal">
        <lane id=":4763083225_3_0" index="0" disallow="tram rail_urban rail rail_electric rail_fast ship container cable_car subway aircraft wheelchair scooter drone" speed="6.39" length="7.24" shape="275.42,412.00 275.04,413.04 275.30,414.46 276.20,416.26 277.75,418.44"/>
    </edge>
    <edge id=":4763083225_4" function="internal">
        <lane id=":4763083225_4_0" index="0" disallow="tram rail_urban rail rail_electric rail_fast ship container cable_car subway aircraft wheelchair scooter drone" speed="13.89" length="5.55" shape="275.42,412.00 274.38,413.28 273.66,414.15 272.87,414.96 271.64,416.05"/>
    </edge>
    <edge id=":4763083225_5" function="internal">
        <lane id=":4763083225_5_0" index="0" disallow="tram rail_urban rail rail_electric rail_fast ship container cable_car subway aircraft wheelchair scooter drone" speed="3.97" length="1.49" shape="275.42,412.00 273.93,411.82"/>
    </edge>
    <edge id=":4763083225_9" function="internal">
        <lane id=":4763083225_9_0" index="0" disallow="tram rail_urban rail rail_electric rail_fast ship container cable_car subway aircraft wheelchair scooter drone" speed="3.97" length="4.21" shape="273.93,411.82 273.67,411.79 272.79,411.14 272.79,410.05 273.65,408.52"/>
    </edge>
    <edge id=":4763083225_6" function="internal">
        <lane id=":4763083225_6_0" index="0" disallow="tram rail_urban rail rail_electric rail_fast ship container cable_car subway aircraft wheelchair scooter drone" speed="13.89" length="6.58" shape="269.57,413.61 271.01,412.31 271.89,411.30 272.63,410.18 273.65,408.52"/>
    </edge>
    <edge id=":4763083225_7" function="internal">
        <lane id=":4763083225_7_0" index="0" disallow="tram rail_urban rail rail_electric rail_fast ship container cable_car subway aircraft wheelchair scooter drone" speed="6.83" length="1.59" shape="269.57,413.61 271.06,413.07"/>
    </edge>
    <edge id=":4763083225_8" function="internal">
        <lane id=":4763083225_8_0" index="0" disallow="tram rail_urban rail rail_electric rail_fast ship container cable_car subway aircraft wheelchair scooter drone" speed="3.65" length="1.44" shape="269.57,413.61 271.00,413.44"/>
    </edge>
    <edge id=":4763083225_10" function="internal">
        <lane id=":4763083225_10_0" index="0" disallow="tram rail_urban rail rail_electric rail_fast ship container cable_car subway aircraft wheelchair scooter drone" speed="6.83" length="8.75" shape="271.06,413.07 272.93,413.70 275.15,415.49 277.75,418.44"/>
    </edge>
    <edge id=":4763083225_11" function="internal">
        <lane id=":4763083225_11_0" index="0" disallow="tram rail_urban rail rail_electric rail_fast ship container cable_car subway aircraft wheelchair scooter drone" speed="3.65" length="3.23" shape="271.00,413.44 271.82,413.79 272.03,414.66 271.64,416.05"/>
    </edge>
    <edge id=":94080956_0" function="internal">
        <lane id=":94080956_0_0" index="0" allow="pedestrian motorcycle moped bicycle" speed="3.65" length="4.67" shape="219.97,143.00 219.98,141.56 220.43,140.78 221.32,140.68 222.64,141.24"/>
    </edge>
    <edge id=":9525249734_0" function="internal">
        <lane id=":9525249734_0_0" index="0" disallow="tram rail_urban rail rail_electric rail_fast ship container cable_car subway aircraft wheelchair scooter drone" speed="13.89" length="0.23" shape="300.11,361.72 300.33,361.73"/>
    </edge>
    <edge id=":9525249739_0" function="internal">
        <lane id=":9525249739_0_0" index="0" allow="pedestrian delivery bicycle" speed="7.79" length="5.79" shape="288.95,334.86 290.86,334.72 292.40,334.40 293.57,333.92 294.39,333.27"/>
    </edge>
    <edge id=":9525249739_1" function="internal">
        <lane id=":9525249739_1_0" index="0" disallow="tram rail_urban rail rail_electric rail_fast ship container cable_car subway aircraft wheelchair scooter drone" speed="13.89" length="6.27" shape="290.98,338.50 291.86,336.86 292.48,335.74 293.20,334.70 294.39,333.27"/>
    </edge>
    <edge id=":9525249743_0" function="internal">
        <lane id=":9525249743_0_0" index="0" disallow="tram rail_urban rail rail_electric rail_fast ship container cable_car subway aircraft wheelchair scooter drone" speed="9.00" length="6.48" shape="316.98,326.32 317.18,328.24 317.37,329.62 317.93,330.80 319.22,332.12"/>
    </edge>
    <edge id=":9525249743_1" function="internal">
        <lane id=":9525249743_1_0" index="0" disallow="tram rail_urban rail rail_electric rail_fast ship container cable_car subway aircraft wheelchair scooter drone" speed="13.89" length="6.58" shape="313.55,328.85 315.34,329.65 316.56,330.21 317.70,330.91 319.22,332.12"/>
    </edge>
    <edge id=":9525249745_0" function="internal">
        <lane id=":9525249745_0_0" index="0" allow="pedestrian delivery bicycle" speed="9.72" length="6.26" shape="323.04,353.99 322.38,355.65 322.33,356.90 322.58,358.23 322.76,360.09"/>
    </edge>
    <edge id=":9525249745_1" function="internal">
        <lane id=":9525249745_1_0" index="0" disallow="tram rail_urban rail rail_electric rail_fast ship container cable_car subway aircraft wheelchair scooter drone" speed="12.52" length="6.65" shape="323.04,353.99 322.12,355.74 321.40,356.91 320.45,357.88 318.86,359.00"/>
    </edge>
    <edge id=":9525249747_0" function="internal">
        <lane id=":9525249747_0_0" index="0" allow="pedestrian delivery bicycle" speed="8.05" length="6.01" shape="312.48,366.09 311.09,364.77 309.79,363.83 308.57,363.26 307.44,363.07"/>
    </edge>
    <edge id=":9525249747_1" function="internal">
        <lane id=":9525249747_1_0" index="0" disallow="tram rail_urban rail rail_electric rail_fast ship container cable_car subway aircraft wheelchair scooter drone" speed="13.89" length="6.32" shape="313.62,361.96 311.82,362.49 310.58,362.83 309.31,363.02 307.44,363.07"/>
    </edge>
    <edge id=":9525249748_0" function="internal">
        <lane id=":9525249748_0_0" index="0" disallow="tram rail_urban rail rail_electric rail_fast ship container cable_car subway aircraft wheelchair scooter drone" speed="13.33" length="7.40" shape="306.92,363.06 304.78,363.22 303.37,363.72 302.05,364.53 300.15,365.67"/>
    </edge>
    <edge id=":9525249748_1" function="internal">
        <lane id=":9525249748_1_0" index="0" disallow="tram rail_urban rail rail_electric rail_fast ship container cable_car subway aircraft wheelchair scooter drone" speed="13.89" length="6.78" shape="306.92,363.06 304.92,362.98 303.56,362.75 302.23,362.35 300.30,361.78"/>
    </edge>
    <edge id=":9525249752_0" function="internal">
        <lane id=":9525249752_0_0" index="0" disallow="tram rail_urban rail rail_electric rail_fast ship container cable_car subway aircraft wheelchair scooter drone" speed="9.81" length="6.01" shape="328.12,350.83 326.43,351.47 325.17,351.84 324.13,352.45 323.14,353.81"/>
    </edge>
    <edge id=":9525249752_1" function="internal">
        <lane id=":9525249752_1_0" index="0" disallow="tram rail_urban rail rail_electric rail_fast ship container cable_car subway aircraft wheelchair scooter drone" speed="13.89" length="5.96" shape="324.93,348.16 324.51,349.88 324.26,351.08 323.90,352.23 323.14,353.81"/>
    </edge>
    <edge id=":9525249753_0" function="internal">
        <lane id=":9525249753_0_0" index="0" allow="pedestrian delivery bicycle" speed="9.55" length="6.64" shape="290.22,349.70 289.56,347.92 288.73,346.88 287.57,346.07 285.92,344.97"/>
    </edge>
    <edge id=":9525249753_1" function="internal">
        <lane id=":9525249753_1_0" index="0" disallow="tram rail_urban rail rail_electric rail_fast ship container cable_car subway aircraft wheelchair scooter drone" speed="12.56" length="6.81" shape="290.22,349.70 289.66,347.76 289.34,346.38 289.33,345.00 289.72,343.05"/>
    </edge>
    <edge id=":9525249760_0" function="internal">
        <lane id=":9525249760_0_0" index="0" disallow="tram rail_urban rail rail_electric rail_fast ship container cable_car subway aircraft wheelchair scooter drone" speed="13.89" length="8.02" shape="298.73,329.89 300.71,328.65 301.85,327.50 302.80,326.12 304.21,324.19"/>
    </edge>
    <edge id=":9525249760_1" function="internal">
        <lane id=":9525249760_1_0" index="0" disallow="tram rail_urban rail rail_electric rail_fast ship container cable_car subway aircraft wheelchair scooter drone" speed="11.85" length="8.18" shape="298.73,329.89 300.84,328.69 302.37,327.91 303.99,327.55 306.36,327.63"/>
    </edge>
    <edge id=":9525249763_0" function="internal">
        <lane id=":9525249763_0_0" index="0" disallow="tram rail_urban rail rail_electric rail_fast ship container cable_car subway aircraft wheelchair scooter drone" speed="13.89" length="5.04" shape="314.99,301.51 315.09,302.99 315.04,304.02 314.97,305.04 315.02,306.53"/>
    </edge>
    <edge id=":9525249763_1" function="internal">
        <lane id=":9525249763_1_0" index="0" disallow="tram rail_urban rail rail_electric rail_fast ship container cable_car subway aircraft wheelchair scooter drone" speed="3.66" length="1.45" shape="314.99,301.51 314.33,302.80"/>
    </edge>
    <edge id=":9525249763_4" function="internal">
        <lane id=":9525249763_4_0" index="0" disallow="tram rail_urban rail rail_electric rail_fast ship container cable_car subway aircraft wheelchair scooter drone" speed="3.66" length="3.25" shape="314.33,302.80 313.57,303.30 312.73,302.99 311.78,301.88"/>
    </edge>
    <edge id=":9525249763_2" function="internal">
        <lane id=":9525249763_2_0" index="0" disallow="tram rail_urban rail rail_electric rail_fast ship container cable_car subway aircraft wheelchair scooter drone" speed="13.89" length="4.84" shape="311.36,306.66 311.67,305.26 311.86,304.29 311.91,303.31 311.78,301.88"/>
    </edge>
    <edge id=":9525249763_3" function="internal">
        <lane id=":9525249763_3_0" index="0" disallow="tram rail_urban rail rail_electric rail_fast ship container cable_car subway aircraft wheelchair scooter drone" speed="5.70" length="4.88" shape="311.36,306.66 312.57,301.94"/>
    </edge>
    <edge id=":9525249763_5" function="internal">
        <lane id=":9525249763_5_0" index="0" disallow="tram rail_urban rail rail_electric rail_fast ship container cable_car subway aircraft wheelchair scooter drone" speed="5.70" length="8.33" shape="312.57,301.94 313.59,300.34 314.40,301.87 315.02,306.53"/>
    </edge>
    <edge id=":9525249766_0" function="internal">
        <lane id=":9525249766_0_0" index="0" disallow="tram rail_urban rail rail_electric rail_fast ship container cable_car subway aircraft wheelchair scooter drone" speed="12.30" length="7.20" shape="321.28,334.28 322.69,335.81 323.93,336.56 325.38,337.04 327.41,337.73"/>
    </edge>
    <edge id=":9525249766_1" function="internal">
        <lane id=":9525249766_1_0" index="0" disallow="tram rail_urban rail rail_electric rail_fast ship container cable_car subway aircraft wheelchair scooter drone" speed="13.89" length="7.23" shape="321.28,334.28 322.53,336.01 323.22,337.30 323.75,338.68 324.54,340.68"/>
    </edge>
    <edge id=":9525249770_0" function="internal">
        <lane id=":9525249770_0_0" index="0" disallow="tram rail_urban rail rail_electric rail_fast ship container cable_car subway aircraft wheelchair scooter drone" speed="13.89" length="0.55" shape="361.41,342.76 360.88,342.58"/>
    </edge>
    <edge id=":9525249770_1" function="internal">
        <lane id=":9525249770_1_0" index="0" disallow="tram rail_urban rail rail_electric rail_fast ship container cable_car subway aircraft wheelchair scooter drone" speed="13.89" length="0.94" shape="360.28,339.50 359.59,340.13"/>
    </edge>
    <edge id=":9525249776_0" function="internal">
        <lane id=":9525249776_0_0" index="0" disallow="tram rail_urban rail rail_electric rail_fast ship container cable_car subway aircraft wheelchair scooter drone" speed="13.89" length="5.45" shape="288.67,377.99 287.67,379.26 287.00,380.16 286.47,381.13 285.91,382.63"/>
    </edge>
    <edge id=":9525249776_1" function="internal">
        <lane id=":9525249776_1_0" index="0" disallow="tram rail_urban rail rail_electric rail_fast ship container cable_car subway aircraft wheelchair scooter drone" speed="5.07" length="3.58" shape="288.67,377.99 286.51,380.49 286.26,380.60"/>
    </edge>
    <edge id=":9525249776_4" function="internal">
        <lane id=":9525249776_4_0" index="0" disallow="tram rail_urban rail rail_electric rail_fast ship container cable_car subway aircraft wheelchair scooter drone" speed="5.07" length="5.85" shape="286.26,380.60 285.22,381.06 284.79,379.72 285.22,376.44"/>
    </edge>
    <edge id=":9525249776_2" function="internal">
        <lane id=":9525249776_2_0" index="0" disallow="tram rail_urban rail rail_electric rail_fast ship container cable_car subway aircraft wheelchair scooter drone" speed="13.89" length="5.74" shape="282.87,381.65 283.53,380.08 284.16,379.07 284.74,378.05 285.22,376.44"/>
    </edge>
    <edge id=":9525249776_3" function="internal">
        <lane id=":9525249776_3_0" index="0" disallow="tram rail_urban rail rail_electric rail_fast ship container cable_car subway aircraft wheelchair scooter drone" speed="3.65" length="1.44" shape="282.87,381.65 284.00,380.75"/>
    </edge>
    <edge id=":9525249776_5" function="internal">
        <lane id=":9525249776_5_0" index="0" disallow="tram rail_urban rail rail_electric rail_fast ship container cable_car subway aircraft wheelchair scooter drone" speed="3.65" length="3.23" shape="284.00,380.75 284.88,380.62 285.52,381.24 285.91,382.63"/>
    </edge>
    <edge id=":9525249777_0" function="internal">
        <lane id=":9525249777_0_0" index="0" disallow="tram rail_urban rail rail_electric rail_fast ship container cable_car subway aircraft wheelchair scooter drone" speed="13.89" length="8.12" shape="278.66,404.45 277.95,406.76 277.55,408.40 276.92,409.92 275.54,411.85"/>
    </edge>
    <edge id=":9525249777_1" function="internal">
        <lane id=":9525249777_1_0" index="0" allow="pedestrian delivery bicycle" speed="6.67" length="4.11" shape="278.66,404.45 276.78,408.10"/>
    </edge>
    <edge id=":9525249777_7" function="internal">
        <lane id=":9525249777_7_0" index="0" allow="pedestrian delivery bicycle" speed="6.67" length="10.17" shape="276.78,408.10 276.67,408.30 274.39,409.71 271.82,408.69 268.95,405.22"/>
    </edge>
    <edge id=":9525249777_2" function="internal">
        <lane id=":9525249777_2_0" index="0" allow="pedestrian delivery bicycle" speed="4.63" length="6.06" shape="271.62,403.46 272.84,404.93 273.93,405.36 274.90,404.75 275.74,403.11"/>
    </edge>
    <edge id=":9525249777_3" function="internal">
        <lane id=":9525249777_3_0" index="0" allow="pedestrian delivery bicycle" speed="7.49" length="9.41" shape="271.62,403.46 273.65,406.75 274.98,409.25 275.61,410.95 275.54,411.85"/>
    </edge>
    <edge id=":9525249777_4" function="internal">
        <lane id=":9525249777_4_0" index="0" allow="pedestrian delivery bicycle" speed="3.65" length="4.67" shape="271.62,403.46 271.61,404.91 271.17,405.68 270.28,405.79 268.95,405.22"/>
    </edge>
    <edge id=":9525249777_5" function="internal">
        <lane id=":9525249777_5_0" index="0" allow="pedestrian delivery bicycle" speed="6.36" length="5.73" shape="273.76,408.35 268.95,405.22"/>
    </edge>
    <edge id=":9525249777_6" function="internal">
        <lane id=":9525249777_6_0" index="0" disallow="tram rail_urban rail rail_electric rail_fast ship container cable_car subway aircraft wheelchair scooter drone" speed="13.89" length="5.63" shape="273.76,408.35 274.57,406.90 274.96,405.83 275.24,404.70 275.74,403.11"/>
    </edge>
    <edge id=":9547874252_0" function="internal">
        <lane id=":9547874252_0_0" index="0" allow="bicycle" speed="2.89" length="2.92" width="2.00" shape="178.26,100.36 178.19,99.46 178.43,98.96 178.98,98.85 179.84,99.13"/>
    </edge>
    <edge id=":9547904168_0" function="internal">
        <lane id=":9547904168_0_0" index="0" allow="pedestrian delivery bicycle" speed="4.45" length="6.57" shape="203.53,314.52 202.47,312.55 202.45,311.50 203.49,311.39 205.58,312.21"/>
    </edge>
    <edge id=":9547904168_1" function="internal">
        <lane id=":9547904168_1_0" index="0" allow="pedestrian delivery bicycle" speed="4.45" length="6.57" shape="204.17,315.08 206.26,315.90 207.29,315.79 207.28,314.75 206.21,312.77"/>
    </edge>
    <edge id=":9919977154_0" function="internal">
        <lane id=":9919977154_0_0" index="0" allow="bicycle" speed="5.56" length="6.41" width="2.00" shape="325.76,324.60 324.25,323.53 323.03,323.08 321.69,322.91 319.80,322.66"/>
    </edge>
    <edge id=":9919977154_1" function="internal">
        <lane id=":9919977154_1_0" index="0" allow="bicycle" speed="5.56" length="7.04" width="2.00" shape="325.76,324.60 324.48,323.30 323.56,321.84 322.99,320.23 322.80,318.46"/>
    </edge>
    <edge id=":9919977154_2" function="internal">
        <lane id=":9919977154_2_0" index="0" allow="bicycle" speed="2.91" length="3.00" width="2.00" shape="325.76,324.60 325.30,323.80 325.30,323.22 325.76,322.88 326.67,322.76"/>
    </edge>
    <edge id=":9919977154_3" function="internal">
        <lane id=":9919977154_3_0" index="0" allow="bicycle" speed="5.56" length="4.86" width="2.00" shape="324.80,318.44 324.92,319.75 325.28,320.90 325.86,321.91 326.67,322.76"/>
    </edge>
    <edge id=":9919977154_4" function="internal">
        <lane id=":9919977154_4_0" index="0" allow="bicycle" speed="5.56" length="7.83" width="2.00" shape="324.80,318.44 324.50,320.63 323.57,322.06 322.01,322.73 319.80,322.66"/>
    </edge>
    <edge id=":9919977154_5" function="internal">
        <lane id=":9919977154_5_0" index="0" allow="bicycle" speed="2.89" length="2.92" width="2.00" shape="324.80,318.44 324.30,319.19 323.81,319.45 323.30,319.20 322.80,318.46"/>
    </edge>
    <edge id=":9919977154_6" function="internal">
        <lane id=":9919977154_6_0" index="0" allow="bicycle" speed="4.23" length="4.14" width="2.00" shape="320.16,320.69 321.32,320.73 322.15,320.37 322.64,319.62 322.80,318.46"/>
    </edge>
    <edge id=":9919977154_7" function="internal">
        <lane id=":9919977154_7_0" index="0" allow="bicycle" speed="5.56" length="6.99" width="2.00" shape="320.16,320.69 322.23,320.96 323.69,321.13 325.02,321.59 326.67,322.76"/>
    </edge>
    <edge id=":9919977154_8" function="internal">
        <lane id=":9919977154_8_0" index="0" allow="bicycle" speed="2.89" length="2.92" width="2.00" shape="320.16,320.69 320.81,321.31 320.96,321.85 320.63,322.30 319.80,322.66"/>
    </edge>
    <edge id=":9919993693_0" function="internal">
        <lane id=":9919993693_0_0" index="0" allow="bicycle" speed="5.56" length="0.77" width="2.00" shape="281.95,345.53 282.19,344.80"/>
    </edge>
    <edge id=":9919993693_1" function="internal">
        <lane id=":9919993693_1_0" index="0" allow="bicycle" speed="5.56" length="0.64" width="2.00" shape="280.24,344.34 280.04,344.95"/>
    </edge>
    <edge id=":9919993694_0" function="internal">