<?xml version="1.0" encoding="UTF-8"?>

<!-- generated on 2024-09-03 01:38:09 by Eclipse SUMO netconvert Version 1.20.0
<configuration xmlns:xsi="http://www.w3.org/2001/XMLSchema-instance" xsi:noNamespaceSchemaLocation="http://sumo.dlr.de/xsd/netconvertConfiguration.xsd">

    <input>
        <osm-files value="train_files/roundabout/hard/osm_files/map(103).osm"/>
    </input>

    <output>
        <output-file value="train_files/roundabout/hard/outputs/map(103)_dict/map(103)/map(103).net.xml"/>
    </output>

    <projection>
        <proj.utm value="true"/>
    </projection>

    <building_defaults>
        <default.junctions.keep-clear value="false"/>
    </building_defaults>

</configuration>
-->

<net version="1.20" junctionCornerDetail="5" limitTurnSpeed="5.50" xmlns:xsi="http://www.w3.org/2001/XMLSchema-instance" xsi:noNamespaceSchemaLocation="http://sumo.dlr.de/xsd/net_file.xsd">

    <location netOffset="-458526.79,-5402082.57" convBoundary="0.00,0.00,583.21,1185.74" origBoundary="2.435490,48.770390,2.443474,48.781043" projParameter="+proj=utm +zone=31 +ellps=WGS84 +datum=WGS84 +units=m +no_defs"/>

    <type id="highway.cycleway" priority="1" numLanes="1" speed="5.56" allow="bicycle" oneway="0" width="2.00"/>
    <type id="highway.footway" priority="1" numLanes="1" speed="2.78" allow="pedestrian" oneway="1" width="2.00"/>
    <type id="highway.path" priority="1" numLanes="1" speed="5.56" allow="pedestrian bicycle" oneway="0" width="2.00"/>
    <type id="highway.primary" priority="12" numLanes="2" speed="27.78" disallow="tram rail_urban rail rail_electric rail_fast ship container cable_car subway aircraft wheelchair scooter drone" oneway="0"/>
    <type id="highway.primary_link" priority="7" numLanes="1" speed="22.22" disallow="tram rail_urban rail rail_electric rail_fast ship container cable_car subway aircraft wheelchair scooter drone" oneway="0"/>
    <type id="highway.service" priority="1" numLanes="1" speed="5.56" allow="pedestrian delivery bicycle" oneway="0"/>
    <type id="highway.steps" priority="1" numLanes="1" speed="1.39" allow="pedestrian" oneway="1" width="2.00"/>
    <type id="highway.trunk" priority="13" numLanes="2" speed="27.78" disallow="pedestrian bicycle tram rail_urban rail rail_electric rail_fast ship container cable_car subway aircraft wheelchair scooter drone" oneway="0"/>
    <type id="highway.trunk_link" priority="8" numLanes="1" speed="22.22" disallow="pedestrian bicycle tram rail_urban rail rail_electric rail_fast ship container cable_car subway aircraft wheelchair scooter drone" oneway="0"/>
    <type id="highway.unclassified" priority="4" numLanes="1" speed="13.89" disallow="tram rail_urban rail rail_electric rail_fast ship container cable_car subway aircraft wheelchair scooter drone" oneway="0"/>
    <type id="railway.highspeed" priority="21" numLanes="1" speed="69.44" allow="rail_fast" oneway="1"/>
    <type id="railway.rail" priority="20" numLanes="1" speed="44.44" allow="rail" oneway="1"/>

    <edge id=":11224484997_0" function="internal">
        <lane id=":11224484997_0_0" index="0" allow="bicycle" speed="5.56" length="0.34" width="3.00" shape="251.69,476.96 251.62,476.90 251.58,476.84 251.54,476.79 251.47,476.72"/>
    </edge>
    <edge id=":11224484997_1" function="internal">
        <lane id=":11224484997_1_0" index="0" allow="bicycle" speed="5.56" length="4.60" width="2.00" shape="252.17,481.10 252.31,479.49 252.24,478.23 251.96,477.30 251.47,476.72"/>
    </edge>
    <edge id=":11224485000_0" function="internal">
        <lane id=":11224485000_0_0" index="0" allow="bicycle" speed="5.03" length="4.84" width="2.00" shape="318.36,454.51 317.02,454.41 315.94,454.71 315.10,455.43 314.51,456.56"/>
    </edge>
    <edge id=":11224485000_1" function="internal">
        <lane id=":11224485000_1_0" index="0" allow="pedestrian bicycle" speed="2.89" length="2.92" width="2.00" shape="318.26,455.00 317.63,454.36 317.49,453.82 317.83,453.38 318.67,453.05"/>
    </edge>
    <edge id=":11224485000_2" function="internal">
        <lane id=":11224485000_2_0" index="0" allow="bicycle" speed="4.99" length="4.80" width="2.00" shape="316.19,450.03 316.15,451.33 316.53,452.35 317.34,453.09 318.57,453.54"/>
    </edge>
    <edge id=":11224485000_3" function="internal">
        <lane id=":11224485000_3_0" index="0" allow="bicycle" speed="5.56" length="6.76" width="3.00" shape="316.19,450.03 315.84,452.00 315.55,453.34 315.16,454.66 314.51,456.56"/>
    </edge>
    <edge id=":11224485002_0" function="internal">
        <lane id=":11224485002_0_0" index="0" disallow="pedestrian bicycle tram rail_urban rail rail_electric rail_fast ship container cable_car subway aircraft wheelchair scooter drone" speed="13.89" length="7.18" shape="294.92,400.95 294.93,408.87"/>
        <lane id=":11224485002_0_1" index="1" disallow="pedestrian bicycle tram rail_urban rail rail_electric rail_fast ship container cable_car subway aircraft wheelchair scooter drone" speed="13.89" length="7.18" shape="291.72,402.08 291.74,408.53"/>
    </edge>
    <edge id=":11224485002_2" function="internal">
        <lane id=":11224485002_2_0" index="0" allow="bicycle" speed="5.56" length="11.54" width="3.00" shape="288.18,403.28 291.19,404.40 293.59,405.34 295.86,406.49 298.52,408.27"/>
    </edge>
    <edge id=":11224485003_0" function="internal">
        <lane id=":11224485003_0_0" index="0" allow="bicycle" speed="8.37" length="8.48" width="3.00" shape="305.13,413.76 306.84,415.05 308.72,415.82 310.78,416.09 313.00,415.85"/>
    </edge>
    <edge id=":11224485003_1" function="internal">
        <lane id=":11224485003_1_0" index="0" allow="bicycle" speed="5.56" length="11.67" width="3.00" shape="305.13,413.76 307.40,416.05 309.04,418.07 310.45,420.27 312.02,423.10"/>
    </edge>
    <edge id=":11224485003_2" function="internal">
        <lane id=":11224485003_2_0" index="0" disallow="tram rail_urban rail rail_electric rail_fast ship container cable_car subway aircraft wheelchair scooter drone" speed="13.89" length="7.56" shape="305.65,417.32 313.02,415.95"/>
        <lane id=":11224485003_2_1" index="1" disallow="tram rail_urban rail rail_electric rail_fast ship container cable_car subway aircraft wheelchair scooter drone" speed="13.89" length="7.56" shape="306.21,420.47 313.69,419.07"/>
    </edge>
    <edge id=":11224485003_4" function="internal">
        <lane id=":11224485003_4_0" index="0" allow="bicycle" speed="6.58" length="6.78" width="3.00" shape="306.22,420.57 308.12,420.50 309.71,420.90 311.02,421.76 312.02,423.10"/>
    </edge>
    <edge id=":11224485004_0" function="internal">
        <lane id=":11224485004_0_0" index="0" allow="bicycle" speed="4.89" length="3.76" width="3.00" shape="283.17,487.06 282.93,486.13 282.72,484.99 282.40,484.05 281.84,483.73"/>
    </edge>
    <edge id=":11224485004_1" function="internal">
        <lane id=":11224485004_1_0" index="0" disallow="tram rail_urban rail rail_electric rail_fast ship container cable_car subway aircraft wheelchair scooter drone" speed="13.89" length="5.42" shape="283.27,487.02 282.61,485.53 282.21,484.50 281.86,483.44 281.38,481.89"/>
        <lane id=":11224485004_1_1" index="1" disallow="tram rail_urban rail rail_electric rail_fast ship container cable_car subway aircraft wheelchair scooter drone" speed="13.89" length="5.42" shape="286.29,485.93 285.64,484.47 285.24,483.46 284.90,482.42 284.42,480.90"/>
    </edge>
    <edge id=":11224485004_3" function="internal">
        <lane id=":11224485004_3_0" index="0" allow="bicycle" speed="5.56" length="6.62" width="3.00" shape="288.27,482.17 281.84,483.73"/>
    </edge>
    <edge id=":11224485004_4" function="internal">
        <lane id=":11224485004_4_0" index="0" allow="bicycle" speed="4.92" length="4.62" width="3.00" shape="288.27,482.17 286.80,482.42 285.65,482.30 284.83,481.80 284.33,480.93"/>
    </edge>
    <edge id=":11224485005_0" function="internal">
        <lane id=":11224485005_0_0" index="0" allow="bicycle" speed="5.56" length="7.14" width="3.00" shape="281.64,483.77 279.55,484.09 278.10,484.20 276.65,484.21 274.53,484.22"/>
    </edge>
    <edge id=":11224485005_1" function="internal">
        <lane id=":11224485005_1_0" index="0" disallow="pedestrian bicycle tram rail_urban rail rail_electric rail_fast ship container cable_car subway aircraft wheelchair scooter drone" speed="13.89" length="5.94" shape="281.52,481.89 280.56,488.00"/>
        <lane id=":11224485005_1_1" index="1" disallow="pedestrian bicycle tram rail_urban rail rail_electric rail_fast ship container cable_car subway aircraft wheelchair scooter drone" speed="13.89" length="5.94" shape="278.30,481.83 277.40,487.45"/>
    </edge>
    <edge id=":11224485006_0" function="internal">
        <lane id=":11224485006_0_0" index="0" disallow="pedestrian bicycle tram rail_urban rail rail_electric rail_fast ship container cable_car subway aircraft wheelchair scooter drone" speed="13.89" length="8.15" shape="254.95,484.26 254.49,476.10"/>
        <lane id=":11224485006_0_1" index="1" disallow="pedestrian bicycle tram rail_urban rail rail_electric rail_fast ship container cable_car subway aircraft wheelchair scooter drone" speed="13.89" length="8.15" shape="258.15,484.11 257.70,476.01"/>
    </edge>
    <edge id=":11224485006_2" function="internal">
        <lane id=":11224485006_2_0" index="0" allow="bicycle" speed="5.56" length="11.02" width="3.00" shape="261.73,481.95 258.84,480.74 256.67,479.76 254.56,478.66 251.86,477.07"/>
    </edge>
    <edge id=":11224485009_0" function="internal">
        <lane id=":11224485009_0_0" index="0" allow="bicycle" speed="6.12" length="5.86" width="3.00" shape="241.71,413.73 243.08,414.12 244.41,414.02 245.72,413.43 247.00,412.36"/>
    </edge>
    <edge id=":11224485009_1" function="internal">
        <lane id=":11224485009_1_0" index="0" disallow="tram rail_urban rail rail_electric rail_fast ship container cable_car subway aircraft wheelchair scooter drone" speed="13.89" length="4.86" shape="241.67,413.82 243.04,414.38 244.01,414.70 244.95,415.06 246.24,415.78"/>
        <lane id=":11224485009_1_1" index="1" disallow="tram rail_urban rail rail_electric rail_fast ship container cable_car subway aircraft wheelchair scooter drone" speed="13.89" length="4.86" shape="240.39,416.75 241.69,417.29 242.62,417.59 243.52,417.93 244.74,418.62"/>
    </edge>
    <edge id=":11224485009_3" function="internal">
        <lane id=":11224485009_3_0" index="0" allow="bicycle" speed="5.56" length="10.55" width="3.00" shape="240.25,420.40 241.85,417.81 243.25,416.10 244.83,414.52 247.00,412.36"/>
    </edge>
    <edge id=":11224485009_4" function="internal">
        <lane id=":11224485009_4_0" index="0" allow="bicycle" speed="5.19" length="5.63" width="3.00" shape="240.25,420.40 241.27,418.98 242.37,418.19 243.54,418.04 244.80,418.53"/>
    </edge>
    <edge id=":11224495838_0" function="internal">
        <lane id=":11224495838_0_0" index="0" allow="bicycle" speed="7.25" length="7.71" width="3.00" shape="319.57,430.05 317.92,431.51 316.84,433.09 316.34,434.79 316.42,436.60"/>
    </edge>
    <edge id=":11224495838_1" function="internal">
        <lane id=":11224495838_1_0" index="0" disallow="tram rail_urban rail rail_electric rail_fast ship container cable_car subway aircraft wheelchair scooter drone" speed="13.89" length="7.01" shape="319.52,429.97 313.81,434.06"/>
        <lane id=":11224495838_1_1" index="1" disallow="tram rail_urban rail rail_electric rail_fast ship container cable_car subway aircraft wheelchair scooter drone" speed="13.89" length="7.01" shape="317.65,427.37 311.96,431.45"/>
    </edge>
    <edge id=":11224495838_3" function="internal">
        <lane id=":11224495838_3_0" index="0" allow="bicycle" speed="5.56" length="10.98" width="3.00" shape="313.47,426.06 314.64,428.95 315.34,431.21 315.83,433.53 316.42,436.60"/>
    </edge>
    <edge id=":11224495838_4" function="internal">
        <lane id=":11224495838_4_0" index="0" allow="bicycle" speed="5.92" length="6.21" width="3.00" shape="313.47,426.06 313.93,427.67 313.85,429.12 313.21,430.41 312.01,431.54"/>
    </edge>
    <edge id=":11224495846_0" function="internal">
        <lane id=":11224495846_0_0" index="0" allow="bicycle" speed="5.56" length="3.26" width="3.00" shape="271.42,401.51 272.38,401.39 273.04,401.27 273.70,401.20 274.66,401.21"/>
    </edge>
    <edge id=":11224495848_0" function="internal">
        <lane id=":11224495848_0_0" index="0" allow="bicycle" speed="7.02" length="7.78" width="3.00" shape="306.08,470.69 304.94,472.20 304.40,473.90 304.46,475.80 305.12,477.90"/>
    </edge>
    <edge id=":11224495848_1" function="internal">
        <lane id=":11224495848_1_0" index="0" allow="bicycle" speed="5.56" length="10.97" width="3.00" shape="306.08,470.69 303.88,472.92 302.20,474.59 300.37,476.08 297.74,477.73"/>
    </edge>
    <edge id=":11224495848_2" function="internal">
        <lane id=":11224495848_2_0" index="0" disallow="tram rail_urban rail rail_electric rail_fast ship container cable_car subway aircraft wheelchair scooter drone" speed="13.89" length="7.28" shape="302.43,471.05 305.03,477.94"/>
        <lane id=":11224495848_2_1" index="1" disallow="tram rail_urban rail rail_electric rail_fast ship container cable_car subway aircraft wheelchair scooter drone" speed="13.89" length="7.28" shape="299.45,472.21 301.99,478.96"/>
    </edge>
    <edge id=":11224495848_4" function="internal">
        <lane id=":11224495848_4_0" index="0" allow="bicycle" speed="5.89" length="6.30" width="3.00" shape="299.36,472.25 299.78,474.00 299.65,475.50 298.97,476.74 297.74,477.73"/>
    </edge>
    <edge id=":11226556424_0" function="internal">
        <lane id=":11226556424_0_0" index="0" disallow="tram rail_urban rail rail_electric rail_fast ship container cable_car subway aircraft wheelchair scooter drone" speed="13.89" length="6.95" shape="235.31,439.99 233.91,438.49 232.93,437.48 231.91,436.52 230.39,435.14"/>
        <lane id=":11226556424_0_1" index="1" disallow="tram rail_urban rail rail_electric rail_fast ship container cable_car subway aircraft wheelchair scooter drone" speed="13.89" length="6.95" shape="237.51,437.66 236.10,436.14 235.11,435.13 234.07,434.16 232.54,432.77"/>
    </edge>
    <edge id=":11226556424_2" function="internal">
        <lane id=":11226556424_2_0" index="0" allow="bicycle" speed="7.80" length="7.74" width="3.00" shape="237.59,437.59 236.33,435.91 235.58,434.16 235.35,432.35 235.62,430.46"/>
    </edge>
    <edge id=":11226556424_3" function="internal">
        <lane id=":11226556424_3_0" index="0" allow="bicycle" speed="9.38" length="8.91" width="3.00" shape="233.79,443.13 233.59,440.86 232.95,438.79 231.86,436.91 230.32,435.21"/>
    </edge>
    <edge id=":11226556424_4" function="internal">
        <lane id=":11226556424_4_0" index="0" allow="bicycle" speed="5.56" length="12.84" width="3.00" shape="233.79,443.13 233.91,439.71 234.23,436.72 234.78,433.77 235.62,430.46"/>
    </edge>
    <edge id=":11226556425_0" function="internal">
        <lane id=":11226556425_0_0" index="0" allow="bicycle" speed="5.56" length="8.31" width="3.00" shape="251.30,476.61 249.31,475.16 248.01,474.08 246.80,472.90 245.08,471.13"/>
    </edge>
    <edge id=":11226556425_1" function="internal">
        <lane id=":11226556425_1_0" index="0" allow="bicycle" speed="6.94" length="6.65" width="3.00" shape="251.30,476.61 249.95,475.42 249.06,474.08 248.61,472.58 248.62,470.91"/>
    </edge>
    <edge id=":11226556425_2" function="internal">
        <lane id=":11226556425_2_0" index="0" allow="bicycle" speed="7.95" length="7.89" width="3.00" shape="247.45,478.31 247.63,476.40 247.29,474.56 246.44,472.81 245.08,471.13"/>
    </edge>
    <edge id=":11226556425_3" function="internal">
        <lane id=":11226556425_3_0" index="0" disallow="pedestrian tram rail_urban rail rail_electric rail_fast ship container cable_car subway aircraft wheelchair scooter drone" speed="13.89" length="7.50" shape="247.54,478.33 248.00,476.15 248.25,474.65 248.44,473.13 248.72,470.92"/>
    </edge>
    <edge id=":1173669072_0" function="internal">
        <lane id=":1173669072_0_0" index="0" allow="pedestrian delivery bicycle" speed="5.06" length="5.02" shape="217.22,473.24 215.84,473.27 214.80,473.73 214.10,474.62 213.74,475.94"/>
    </edge>
    <edge id=":1173669072_1" function="internal">
        <lane id=":1173669072_1_0" index="0" allow="pedestrian delivery bicycle" speed="5.56" length="9.74" shape="217.22,473.24 214.51,472.56 212.68,471.25 211.73,469.33 211.64,466.78"/>
    </edge>
    <edge id=":1173669072_2" function="internal">
        <lane id=":1173669072_2_0" index="0" allow="pedestrian delivery bicycle" speed="3.65" length="4.67" shape="217.22,473.24 216.12,472.30 215.82,471.46 216.31,470.71 217.59,470.06"/>
    </edge>
    <edge id=":1173669072_3" function="internal">
        <lane id=":1173669072_3_0" index="0" allow="pedestrian delivery bicycle" speed="4.85" length="4.56" shape="214.82,467.17 214.87,468.30 215.36,469.16 216.26,469.74 217.59,470.06"/>
    </edge>
    <edge id=":1173669072_4" function="internal">
        <lane id=":1173669072_4_0" index="0" allow="pedestrian delivery bicycle" speed="5.56" length="8.84" shape="214.82,467.17 213.74,475.94"/>
    </edge>
    <edge id=":1173669072_5" function="internal">
        <lane id=":1173669072_5_0" index="0" allow="pedestrian delivery bicycle" speed="3.65" length="4.67" shape="214.82,467.17 213.88,468.26 213.03,468.56 212.29,468.07 211.64,466.78"/>
    </edge>
    <edge id=":1173669072_6" function="internal">
        <lane id=":1173669072_6_0" index="0" allow="pedestrian delivery bicycle" speed="5.56" length="8.84" shape="210.56,475.55 211.64,466.78"/>
    </edge>
    <edge id=":1173669072_7" function="internal">
        <lane id=":1173669072_7_0" index="0" allow="pedestrian delivery bicycle" speed="5.56" length="10.16" shape="210.56,475.55 211.29,472.87 212.70,471.06 214.80,470.13 217.59,470.06"/>
    </edge>
    <edge id=":1173669072_8" function="internal">
        <lane id=":1173669072_8_0" index="0" allow="pedestrian delivery bicycle" speed="3.65" length="4.67" shape="210.56,475.55 211.50,474.46 212.35,474.16 213.09,474.65 213.74,475.94"/>
    </edge>
    <edge id=":1173669084_0" function="internal">
        <lane id=":1173669084_0_0" index="0" allow="pedestrian delivery bicycle" speed="4.98" length="5.07" shape="198.74,562.28 198.78,563.68 199.27,564.70 200.20,565.35 201.58,565.63"/>
    </edge>
    <edge id=":1173669084_1" function="internal">
        <lane id=":1173669084_1_0" index="0" allow="pedestrian delivery bicycle" speed="5.56" length="6.31" shape="198.74,562.28 198.25,568.57"/>
    </edge>
    <edge id=":1173669084_2" function="internal">
        <lane id=":1173669084_2_0" index="0" allow="pedestrian delivery bicycle" speed="3.65" length="4.67" shape="198.74,562.28 197.81,563.38 196.97,563.69 196.22,563.20 195.56,561.92"/>
    </edge>
    <edge id=":1173669084_3" function="internal">
        <lane id=":1173669084_3_0" index="0" allow="pedestrian delivery bicycle" speed="5.56" length="6.53" shape="195.05,568.43 195.56,561.92"/>
    </edge>
    <edge id=":1173669084_4" function="internal">
        <lane id=":1173669084_4_0" index="0" allow="pedestrian delivery bicycle" speed="5.56" length="7.86" shape="195.05,568.43 195.51,567.08 196.75,566.16 198.77,565.67 201.58,565.63"/>
    </edge>
    <edge id=":1173669084_5" function="internal">
        <lane id=":1173669084_5_0" index="0" allow="pedestrian delivery bicycle" speed="3.65" length="4.67" shape="195.05,568.43 195.90,567.27 196.72,566.90 197.50,567.34 198.25,568.57"/>
    </edge>
    <edge id=":1173669089_0" function="internal">
        <lane id=":1173669089_0_0" index="0" allow="pedestrian delivery bicycle" speed="5.06" length="5.03" shape="213.36,504.73 211.97,504.76 210.93,505.22 210.22,506.11 209.86,507.43"/>
    </edge>
    <edge id=":1173669089_1" function="internal">
        <lane id=":1173669089_1_0" index="0" allow="pedestrian delivery bicycle" speed="5.56" length="10.20" shape="213.36,504.73 210.65,504.02 208.83,502.61 207.89,500.51 207.84,497.71"/>
    </edge>
    <edge id=":1173669089_2" function="internal">
        <lane id=":1173669089_2_0" index="0" allow="pedestrian delivery bicycle" speed="3.65" length="4.67" shape="213.36,504.73 212.26,503.79 211.95,502.95 212.44,502.21 213.72,501.55"/>
    </edge>
    <edge id=":1173669089_3" function="internal">
        <lane id=":1173669089_3_0" index="0" allow="pedestrian delivery bicycle" speed="5.03" length="5.01" shape="211.01,498.10 211.04,499.48 211.50,500.51 212.39,501.20 213.72,501.55"/>
    </edge>
    <edge id=":1173669089_4" function="internal">
        <lane id=":1173669089_4_0" index="0" allow="pedestrian delivery bicycle" speed="5.56" length="9.40" shape="211.01,498.10 209.86,507.43"/>
    </edge>
    <edge id=":1173669089_5" function="internal">
        <lane id=":1173669089_5_0" index="0" allow="pedestrian delivery bicycle" speed="3.65" length="4.67" shape="211.01,498.10 210.07,499.20 209.23,499.50 208.48,499.00 207.84,497.71"/>
    </edge>
    <edge id=":1173669089_6" function="internal">
        <lane id=":1173669089_6_0" index="0" allow="pedestrian delivery bicycle" speed="5.56" length="9.40" shape="206.69,507.04 207.84,497.71"/>
    </edge>
    <edge id=":1173669089_7" function="internal">
        <lane id=":1173669089_7_0" index="0" allow="pedestrian delivery bicycle" speed="5.56" length="10.16" shape="206.69,507.04 207.42,504.37 208.83,502.56 210.93,501.62 213.72,501.55"/>
    </edge>
    <edge id=":1173669089_8" function="internal">
        <lane id=":1173669089_8_0" index="0" allow="pedestrian delivery bicycle" speed="3.65" length="4.67" shape="206.69,507.04 207.63,505.95 208.47,505.65 209.22,506.14 209.86,507.43"/>
    </edge>
    <edge id=":1173669090_0" function="internal">
        <lane id=":1173669090_0_0" index="0" allow="pedestrian delivery bicycle" speed="9.72" length="10.37" shape="215.21,424.84 212.59,423.57 210.52,423.45 208.30,423.93 205.23,424.41"/>
    </edge>
    <edge id=":1173669090_1" function="internal">
        <lane id=":1173669090_1_0" index="0" disallow="tram rail_urban rail rail_electric rail_fast ship container cable_car subway aircraft wheelchair scooter drone" speed="13.89" length="10.51" shape="215.21,424.84 212.60,423.31 210.69,422.48 208.71,421.78 205.89,420.62"/>
        <lane id=":1173669090_1_1" index="1" disallow="tram rail_urban rail rail_electric rail_fast ship container cable_car subway aircraft wheelchair scooter drone" speed="13.89" length="10.51" shape="216.96,422.16 214.22,420.55 212.23,419.67 210.16,418.93 207.21,417.71"/>
    </edge>
    <edge id=":1173669094_0" function="internal">
        <lane id=":1173669094_0_0" index="0" allow="pedestrian delivery bicycle" speed="4.22" length="3.60" shape="168.27,441.58 168.55,442.08 169.46,442.23 170.60,442.21 171.57,442.20"/>
    </edge>
    <edge id=":1173669094_1" function="internal">
        <lane id=":1173669094_1_0" index="0" allow="pedestrian delivery bicycle" speed="5.56" length="3.42" shape="168.27,441.58 168.06,442.58 167.97,443.27 167.91,443.96 167.80,444.97"/>
    </edge>
    <edge id=":1173669098_0" function="internal">
        <lane id=":1173669098_0_0" index="0" allow="pedestrian delivery bicycle" speed="3.65" length="4.67" shape="227.32,471.21 228.41,472.15 228.72,472.99 228.23,473.74 226.94,474.39"/>
    </edge>
    <edge id=":1173669111_0" function="internal">
        <lane id=":1173669111_0_0" index="0" allow="delivery bicycle" speed="9.72" length="13.33" shape="228.86,544.90 230.69,541.90 232.40,539.19 233.85,536.38 234.89,533.09"/>
    </edge>
    <edge id=":1173669111_1" function="internal">
        <lane id=":1173669111_1_0" index="0" disallow="pedestrian tram rail_urban rail rail_electric rail_fast ship container cable_car subway aircraft wheelchair scooter drone" speed="13.89" length="13.33" shape="232.27,546.15 234.89,533.09"/>
    </edge>
    <edge id=":1173669112_0" function="internal">
        <lane id=":1173669112_0_0" index="0" allow="pedestrian delivery bicycle" speed="3.65" length="4.67" shape="224.71,518.40 225.81,519.33 226.11,520.18 225.62,520.92 224.34,521.58"/>
    </edge>
    <edge id=":1173669115_0" function="internal">
        <lane id=":1173669115_0_0" index="0" allow="pedestrian delivery bicycle" speed="5.11" length="5.08" shape="215.34,489.12 213.92,489.17 212.86,489.63 212.15,490.53 211.78,491.84"/>
    </edge>
    <edge id=":1173669115_1" function="internal">
        <lane id=":1173669115_1_0" index="0" allow="pedestrian delivery bicycle" speed="5.56" length="10.26" shape="215.34,489.12 212.60,488.44 210.76,487.04 209.81,484.93 209.75,482.12"/>
    </edge>
    <edge id=":1173669115_2" function="internal">
        <lane id=":1173669115_2_0" index="0" allow="pedestrian delivery bicycle" speed="3.65" length="4.67" shape="215.34,489.12 214.23,488.20 213.91,487.36 214.39,486.61 215.66,485.93"/>
    </edge>
    <edge id=":1173669115_3" function="internal">
        <lane id=":1173669115_3_0" index="0" allow="pedestrian delivery bicycle" speed="5.02" length="5.02" shape="212.93,482.51 212.96,483.89 213.42,484.92 214.33,485.60 215.66,485.93"/>
    </edge>
    <edge id=":1173669115_4" function="internal">
        <lane id=":1173669115_4_0" index="0" allow="pedestrian delivery bicycle" speed="5.56" length="9.40" shape="212.93,482.51 211.78,491.84"/>
    </edge>
    <edge id=":1173669115_5" function="internal">
        <lane id=":1173669115_5_0" index="0" allow="pedestrian delivery bicycle" speed="3.65" length="4.67" shape="212.93,482.51 211.99,483.60 211.15,483.90 210.40,483.40 209.75,482.12"/>
    </edge>
    <edge id=":1173669115_6" function="internal">
        <lane id=":1173669115_6_0" index="0" allow="pedestrian delivery bicycle" speed="5.56" length="9.40" shape="208.61,491.45 209.75,482.12"/>
    </edge>
    <edge id=":1173669115_7" function="internal">
        <lane id=":1173669115_7_0" index="0" allow="pedestrian delivery bicycle" speed="5.56" length="10.17" shape="208.61,491.45 209.33,488.79 210.75,486.99 212.86,486.04 215.66,485.93"/>
    </edge>
    <edge id=":1173669115_8" function="internal">
        <lane id=":1173669115_8_0" index="0" allow="pedestrian delivery bicycle" speed="3.65" length="4.67" shape="208.61,491.45 209.55,490.35 210.39,490.05 211.14,490.55 211.78,491.84"/>
    </edge>
    <edge id=":1173669116_0" function="internal">
        <lane id=":1173669116_0_0" index="0" allow="pedestrian delivery bicycle" speed="3.65" length="4.67" shape="218.64,535.33 219.78,536.21 220.13,537.03 219.68,537.81 218.43,538.53"/>
    </edge>
    <edge id=":1173669126_0" function="internal">
        <lane id=":1173669126_0_0" index="0" allow="pedestrian delivery bicycle" speed="3.65" length="4.67" shape="233.67,487.78 234.78,488.70 235.10,489.53 234.62,490.29 233.34,490.96"/>
    </edge>
    <edge id=":1173669132_0" function="internal">
        <lane id=":1173669132_0_0" index="0" allow="pedestrian delivery bicycle" speed="5.56" length="5.64" shape="215.53,461.37 214.84,466.97"/>
    </edge>
    <edge id=":1173669132_1" function="internal">
        <lane id=":1173669132_1_0" index="0" allow="pedestrian delivery bicycle" speed="3.65" length="4.67" shape="215.53,461.37 214.59,462.47 213.75,462.77 213.00,462.27 212.35,460.98"/>
    </edge>
    <edge id=":1173669132_2" function="internal">
        <lane id=":1173669132_2_0" index="0" allow="pedestrian delivery bicycle" speed="5.03" length="5.01" shape="208.89,463.67 210.26,463.65 211.30,463.20 212.00,462.31 212.35,460.98"/>
    </edge>
    <edge id=":1173669132_3" function="internal">
        <lane id=":1173669132_3_0" index="0" allow="pedestrian delivery bicycle" speed="5.56" length="7.39" shape="208.89,463.67 211.61,464.18 213.51,464.90 214.58,465.83 214.84,466.97"/>
    </edge>
    <edge id=":1173669132_4" function="internal">
        <lane id=":1173669132_4_0" index="0" allow="pedestrian delivery bicycle" speed="5.56" length="5.64" shape="211.67,466.58 212.35,460.98"/>
    </edge>
    <edge id=":1173669132_5" function="internal">
        <lane id=":1173669132_5_0" index="0" allow="pedestrian delivery bicycle" speed="3.65" length="4.67" shape="211.67,466.58 212.61,465.49 213.45,465.19 214.19,465.68 214.84,466.97"/>
    </edge>
    <edge id=":1173669137_0" function="internal">
        <lane id=":1173669137_0_0" index="0" allow="pedestrian delivery bicycle" speed="5.56" length="6.01" shape="209.51,537.95 207.60,537.94 206.02,538.16 204.76,538.62 203.82,539.31"/>
    </edge>
    <edge id=":1173669137_1" function="internal">
        <lane id=":1173669137_1_0" index="0" allow="pedestrian delivery bicycle" speed="5.56" length="10.45" shape="209.51,537.95 206.68,537.36 204.78,536.00 203.80,533.88 203.74,530.99"/>
    </edge>
    <edge id=":1173669137_2" function="internal">
        <lane id=":1173669137_2_0" index="0" allow="pedestrian delivery bicycle" speed="3.65" length="4.67" shape="209.51,537.95 208.36,537.08 208.02,536.25 208.47,535.48 209.72,534.76"/>
    </edge>
    <edge id=":1173669137_3" function="internal">
        <lane id=":1173669137_3_0" index="0" allow="pedestrian delivery bicycle" speed="4.98" length="5.07" shape="206.92,531.38 206.94,532.78 207.42,533.81 208.34,534.47 209.72,534.76"/>
    </edge>
    <edge id=":1173669137_4" function="internal">
        <lane id=":1173669137_4_0" index="0" allow="pedestrian delivery bicycle" speed="5.56" length="8.78" shape="206.92,531.38 206.63,533.97 206.28,535.78 205.47,537.37 203.82,539.31"/>
    </edge>
    <edge id=":1173669137_5" function="internal">
        <lane id=":1173669137_5_0" index="0" allow="pedestrian delivery bicycle" speed="3.65" length="4.67" shape="206.92,531.38 205.98,532.48 205.13,532.77 204.39,532.28 203.74,530.99"/>
    </edge>
    <edge id=":1173669137_6" function="internal">