<?xml version="1.0" encoding="UTF-8"?>

<!-- generated on 2024-09-03 01:37:39 by Eclipse SUMO netconvert Version 1.20.0
<configuration xmlns:xsi="http://www.w3.org/2001/XMLSchema-instance" xsi:noNamespaceSchemaLocation="http://sumo.dlr.de/xsd/netconvertConfiguration.xsd">

    <input>
        <osm-files value="train_files/roundabout/middle/osm_files/map(100).osm"/>
    </input>

    <output>
        <output-file value="train_files/roundabout/middle/outputs/map(100)_dict/map(100)/map(100).net.xml"/>
    </output>

    <projection>
        <proj.utm value="true"/>
    </projection>

    <building_defaults>
        <default.junctions.keep-clear value="false"/>
    </building_defaults>

</configuration>
-->

<net version="1.20" junctionCornerDetail="5" limitTurnSpeed="5.50" xmlns:xsi="http://www.w3.org/2001/XMLSchema-instance" xsi:noNamespaceSchemaLocation="http://sumo.dlr.de/xsd/net_file.xsd">

    <location netOffset="-687783.16,-5953047.13" convBoundary="0.00,0.00,993.20,995.78" origBoundary="23.844748,53.692126,23.859597,53.700930" projParameter="+proj=utm +zone=34 +ellps=WGS84 +datum=WGS84 +units=m +no_defs"/>

    <type id="highway.footway" priority="1" numLanes="1" speed="2.78" allow="pedestrian" oneway="1" width="2.00"/>
    <type id="highway.path" priority="1" numLanes="1" speed="5.56" allow="pedestrian bicycle" oneway="0" width="2.00"/>
    <type id="highway.primary" priority="12" numLanes="2" speed="27.78" disallow="tram rail_urban rail rail_electric rail_fast ship container cable_car subway aircraft wheelchair scooter drone" oneway="0"/>
    <type id="highway.secondary" priority="11" numLanes="1" speed="27.78" disallow="tram rail_urban rail rail_electric rail_fast ship container cable_car subway aircraft wheelchair scooter drone" oneway="0"/>
    <type id="highway.service" priority="1" numLanes="1" speed="5.56" allow="pedestrian delivery bicycle" oneway="0"/>
    <type id="highway.steps" priority="1" numLanes="1" speed="1.39" allow="pedestrian" oneway="1" width="2.00"/>

    <edge id=":10281211839_0" function="internal">
        <lane id=":10281211839_0_0" index="0" allow="pedestrian delivery bicycle" speed="5.56" length="9.41" shape="754.75,383.18 748.03,389.76"/>
    </edge>
    <edge id=":10281211839_1" function="internal">
        <lane id=":10281211839_1_0" index="0" allow="pedestrian delivery bicycle" speed="5.56" length="10.43" shape="754.75,383.18 752.43,384.88 750.15,385.39 747.91,384.71 745.72,382.83"/>
    </edge>
    <edge id=":10281211839_2" function="internal">
        <lane id=":10281211839_2_0" index="0" allow="pedestrian delivery bicycle" speed="3.65" length="4.67" shape="754.75,383.18 753.34,383.44 752.49,383.15 752.22,382.30 752.51,380.89"/>
    </edge>
    <edge id=":10281211839_3" function="internal">
        <lane id=":10281211839_3_0" index="0" allow="pedestrian delivery bicycle" speed="4.98" length="5.07" shape="748.13,380.72 749.19,381.63 750.28,381.96 751.39,381.72 752.51,380.89"/>
    </edge>
    <edge id=":10281211839_4" function="internal">
        <lane id=":10281211839_4_0" index="0" allow="pedestrian delivery bicycle" speed="5.56" length="10.18" shape="748.13,380.72 749.71,383.09 750.21,385.39 749.65,387.61 748.03,389.76"/>
    </edge>
    <edge id=":10281211839_5" function="internal">
        <lane id=":10281211839_5_0" index="0" allow="pedestrian delivery bicycle" speed="3.65" length="4.67" shape="748.13,380.72 748.32,382.15 747.98,382.98 747.12,383.21 745.72,382.83"/>
    </edge>
    <edge id=":10281211839_6" function="internal">
        <lane id=":10281211839_6_0" index="0" allow="pedestrian delivery bicycle" speed="5.23" length="5.22" shape="745.79,387.47 746.59,386.39 746.85,385.26 746.56,384.07 745.72,382.83"/>
    </edge>
    <edge id=":10281211839_7" function="internal">
        <lane id=":10281211839_7_0" index="0" allow="pedestrian delivery bicycle" speed="5.56" length="9.41" shape="745.79,387.47 752.51,380.89"/>
    </edge>
    <edge id=":10281211839_8" function="internal">
        <lane id=":10281211839_8_0" index="0" allow="pedestrian delivery bicycle" speed="3.65" length="4.67" shape="745.79,387.47 747.21,387.20 748.05,387.50 748.32,388.35 748.03,389.76"/>
    </edge>
    <edge id=":10281211840_0" function="internal">
        <lane id=":10281211840_0_0" index="0" allow="pedestrian delivery bicycle" speed="3.65" length="4.67" shape="732.98,368.29 732.79,366.86 733.13,366.04 733.99,365.81 735.39,366.18"/>
    </edge>
    <edge id=":1109191458_0" function="internal">
        <lane id=":1109191458_0_0" index="0" allow="pedestrian delivery bicycle" speed="3.65" length="4.67" shape="915.81,596.86 915.61,595.43 915.95,594.60 916.81,594.37 918.20,594.73"/>
    </edge>
    <edge id=":1535930923_0" function="internal">
        <lane id=":1535930923_0_0" index="0" disallow="tram rail_urban rail rail_electric rail_fast ship container cable_car subway aircraft wheelchair scooter drone" speed="16.67" length="17.26" shape="797.89,561.65 797.31,556.66 796.34,553.34 794.92,550.11 792.99,545.40"/>
        <lane id=":1535930923_0_1" index="1" disallow="tram rail_urban rail rail_electric rail_fast ship container cable_car subway aircraft wheelchair scooter drone" speed="16.67" length="17.26" shape="801.05,560.83 800.44,555.75 799.43,552.37 797.97,549.09 795.99,544.29"/>
    </edge>
    <edge id=":1535930923_2" function="internal">
        <lane id=":1535930923_2_0" index="0" disallow="tram rail_urban rail rail_electric rail_fast ship container cable_car subway aircraft wheelchair scooter drone" speed="16.67" length="17.57" shape="806.36,558.39 802.25,555.07 799.72,552.40 797.92,549.20 795.99,544.29"/>
        <lane id=":1535930923_2_1" index="1" disallow="tram rail_urban rail rail_electric rail_fast ship container cable_car subway aircraft wheelchair scooter drone" speed="16.67" length="17.57" shape="809.23,556.57 805.24,553.41 802.72,550.90 800.89,547.88 798.99,543.19"/>
    </edge>
    <edge id=":1535930928_0" function="internal">
        <lane id=":1535930928_0_0" index="0" disallow="tram rail_urban rail rail_electric rail_fast ship container cable_car subway aircraft wheelchair scooter drone" speed="16.67" length="14.78" shape="873.99,572.10 869.90,571.18 867.03,570.57 864.18,570.52 860.13,571.26"/>
        <lane id=":1535930928_0_1" index="1" disallow="tram rail_urban rail rail_electric rail_fast ship container cable_car subway aircraft wheelchair scooter drone" speed="16.67" length="14.78" shape="874.60,568.96 870.10,567.97 866.96,567.34 863.83,567.32 859.37,568.15"/>
    </edge>
    <edge id=":1535930928_2" function="internal">
        <lane id=":1535930928_2_0" index="0" disallow="tram rail_urban rail rail_electric rail_fast ship container cable_car subway aircraft wheelchair scooter drone" speed="16.67" length="15.05" shape="873.63,562.97 869.85,565.40 866.96,566.55 863.85,567.21 859.37,568.15"/>
        <lane id=":1535930928_2_1" index="1" disallow="tram rail_urban rail rail_electric rail_fast ship container cable_car subway aircraft wheelchair scooter drone" speed="16.67" length="15.05" shape="872.27,560.00 868.65,562.34 865.89,563.48 862.91,564.13 858.62,565.04"/>
    </edge>
    <edge id=":1535930947_0" function="internal">
        <lane id=":1535930947_0_0" index="0" disallow="tram rail_urban rail rail_electric rail_fast ship container cable_car subway aircraft wheelchair scooter drone" speed="16.67" length="0.25" shape="798.23,578.61 798.25,578.43"/>
        <lane id=":1535930947_0_1" index="1" disallow="tram rail_urban rail rail_electric rail_fast ship container cable_car subway aircraft wheelchair scooter drone" speed="16.67" length="0.25" shape="801.41,578.96 801.44,578.64"/>
    </edge>
    <edge id=":1535930952_0" function="internal">
        <lane id=":1535930952_0_0" index="0" disallow="tram rail_urban rail rail_electric rail_fast ship container cable_car subway aircraft wheelchair scooter drone" speed="16.67" length="0.61" shape="793.80,602.26 793.84,602.18 793.86,602.12 793.88,602.06 793.90,601.98"/>
        <lane id=":1535930952_0_1" index="1" disallow="tram rail_urban rail rail_electric rail_fast ship container cable_car subway aircraft wheelchair scooter drone" speed="16.67" length="0.61" shape="796.67,603.66 796.79,603.42 796.86,603.25 796.92,603.07 796.99,602.81"/>
    </edge>
    <edge id=":1535930958_0" function="internal">
        <lane id=":1535930958_0_0" index="0" disallow="tram rail_urban rail rail_electric rail_fast ship container cable_car subway aircraft wheelchair scooter drone" speed="16.67" length="0.30" shape="661.88,756.68 662.11,756.48"/>
        <lane id=":1535930958_0_1" index="1" disallow="tram rail_urban rail rail_electric rail_fast ship container cable_car subway aircraft wheelchair scooter drone" speed="16.67" length="0.30" shape="664.00,759.09 664.22,758.89"/>
    </edge>
    <edge id=":1535930966_0" function="internal">
        <lane id=":1535930966_0_0" index="0" disallow="tram rail_urban rail rail_electric rail_fast ship container cable_car subway aircraft wheelchair scooter drone" speed="16.67" length="0.27" shape="333.19,966.45 333.42,966.40"/>
        <lane id=":1535930966_0_1" index="1" disallow="tram rail_urban rail rail_electric rail_fast ship container cable_car subway aircraft wheelchair scooter drone" speed="16.67" length="0.27" shape="333.89,969.57 334.19,969.50"/>
    </edge>
    <edge id=":1703465740_0" function="internal">
        <lane id=":1703465740_0_0" index="0" disallow="tram rail_urban rail rail_electric rail_fast ship container cable_car subway aircraft wheelchair scooter drone" speed="3.64" length="4.62" shape="926.25,674.99 925.81,676.35 925.15,676.94 924.28,676.78 923.20,675.85"/>
    </edge>
    <edge id=":1720192957_0" function="internal">
        <lane id=":1720192957_0_0" index="0" disallow="tram rail_urban rail rail_electric rail_fast ship container cable_car subway aircraft wheelchair scooter drone" speed="13.89" length="10.72" shape="734.59,406.26 727.07,398.64"/>
        <lane id=":1720192957_0_1" index="1" disallow="tram rail_urban rail rail_electric rail_fast ship container cable_car subway aircraft wheelchair scooter drone" speed="13.89" length="10.72" shape="736.99,404.12 729.44,396.49"/>
    </edge>
    <edge id=":1720192957_2" function="internal">
        <lane id=":1720192957_2_0" index="0" allow="pedestrian delivery bicycle" speed="7.34" length="0.52" shape="736.99,404.12 736.70,403.70"/>
    </edge>
    <edge id=":1720192957_8" function="internal">
        <lane id=":1720192957_8_0" index="0" allow="pedestrian delivery bicycle" speed="7.34" length="11.89" shape="736.70,403.70 735.45,401.83 735.33,399.31 736.64,396.54 739.38,393.55"/>
    </edge>
    <edge id=":1720192957_3" function="internal">
        <lane id=":1720192957_3_0" index="0" allow="pedestrian delivery bicycle" speed="5.05" length="4.99" shape="741.52,395.92 740.65,396.97 740.32,398.05 740.53,399.16 741.29,400.29"/>
    </edge>
    <edge id=":1720192957_4" function="internal">
        <lane id=":1720192957_4_0" index="0" allow="pedestrian delivery bicycle" speed="7.89" length="13.75" shape="741.52,395.92 738.17,398.30 735.04,399.19 732.13,398.59 729.44,396.49"/>
    </edge>
    <edge id=":1720192957_5" function="internal">
        <lane id=":1720192957_5_0" index="0" allow="pedestrian delivery bicycle" speed="3.65" length="4.67" shape="741.52,395.92 740.10,396.13 739.26,395.81 739.02,394.94 739.38,393.55"/>
    </edge>
    <edge id=":1720192957_6" function="internal">
        <lane id=":1720192957_6_0" index="0" allow="pedestrian delivery bicycle" speed="6.38" length="8.61" shape="731.81,394.34 733.41,395.54 735.21,395.80 737.20,395.14 739.38,393.55"/>
    </edge>
    <edge id=":1720192957_7" function="internal">
        <lane id=":1720192957_7_0" index="0" disallow="tram rail_urban rail rail_electric rail_fast ship container cable_car subway aircraft wheelchair scooter drone" speed="16.67" length="10.75" shape="731.81,394.34 738.90,402.42"/>
    </edge>
    <edge id=":1720192963_0" function="internal">
        <lane id=":1720192963_0_0" index="0" disallow="tram rail_urban rail rail_electric rail_fast ship container cable_car subway aircraft wheelchair scooter drone" speed="16.67" length="13.73" shape="833.48,460.83 837.32,459.63 839.78,458.33 841.97,456.52 844.97,453.76"/>
        <lane id=":1720192963_0_1" index="1" disallow="tram rail_urban rail rail_electric rail_fast ship container cable_car subway aircraft wheelchair scooter drone" speed="16.67" length="14.99" shape="834.30,463.92 838.51,462.62 841.22,461.25 843.63,459.31 846.92,456.31"/>
    </edge>
    <edge id=":1720192963_2" function="internal">
        <lane id=":1720192963_2_0" index="0" disallow="tram rail_urban rail rail_electric rail_fast ship container cable_car subway aircraft wheelchair scooter drone" speed="16.67" length="14.63" shape="834.30,463.92 838.58,462.60 841.58,461.65 844.59,461.34 848.92,461.94"/>
        <lane id=":1720192963_2_1" index="1" disallow="tram rail_urban rail rail_electric rail_fast ship container cable_car subway aircraft wheelchair scooter drone" speed="16.67" length="14.63" shape="835.13,467.02 839.19,465.77 842.04,464.90 844.90,464.64 849.01,465.23"/>
    </edge>
    <edge id=":1720192985_0" function="internal">
        <lane id=":1720192985_0_0" index="0" disallow="tram rail_urban rail rail_electric rail_fast ship container cable_car subway aircraft wheelchair scooter drone" speed="16.67" length="17.11" shape="807.84,462.28 812.48,463.76 815.80,464.52 819.14,464.44 823.83,463.41"/>
        <lane id=":1720192985_0_1" index="1" disallow="tram rail_urban rail rail_electric rail_fast ship container cable_car subway aircraft wheelchair scooter drone" speed="16.67" length="17.11" shape="807.28,465.46 812.32,467.04 815.93,467.80 819.56,467.65 824.65,466.50"/>
    </edge>
    <edge id=":1720192985_2" function="internal">
        <lane id=":1720192985_2_0" index="0" disallow="tram rail_urban rail rail_electric rail_fast ship container cable_car subway aircraft wheelchair scooter drone" speed="16.67" length="17.00" shape="808.55,471.83 812.61,468.52 815.57,466.41 818.84,464.90 823.83,463.41"/>
        <lane id=":1720192985_2_1" index="1" disallow="tram rail_urban rail rail_electric rail_fast ship container cable_car subway aircraft wheelchair scooter drone" speed="16.67" length="17.00" shape="810.04,474.73 813.94,471.53 816.76,469.45 819.87,467.96 824.65,466.50"/>
        <lane id=":1720192985_2_2" index="2" disallow="tram rail_urban rail rail_electric rail_fast ship container cable_car subway aircraft wheelchair scooter drone" speed="16.67" length="17.00" shape="811.54,477.64 815.27,474.54 817.94,472.50 820.90,471.01 825.47,469.59"/>
    </edge>
    <edge id=":1720192990_0" function="internal">
        <lane id=":1720192990_0_0" index="0" disallow="tram rail_urban rail rail_electric rail_fast ship container cable_car subway aircraft wheelchair scooter drone" speed="16.67" length="27.55" shape="786.42,511.99 787.00,503.30 787.32,496.83 787.37,491.06 787.13,484.48"/>
        <lane id=":1720192990_0_1" index="1" disallow="tram rail_urban rail rail_electric rail_fast ship container cable_car subway aircraft wheelchair scooter drone" speed="16.67" length="28.01" shape="786.42,511.99 787.50,503.19 788.92,496.67 790.07,490.89 790.33,484.31"/>
    </edge>
    <edge id=":1720192990_2" function="internal">
        <lane id=":1720192990_2_0" index="0" disallow="tram rail_urban rail rail_electric rail_fast ship container cable_car subway aircraft wheelchair scooter drone" speed="16.67" length="28.44" shape="786.42,511.99 787.00,503.38 788.02,497.39 790.54,492.01 795.63,485.18"/>
        <lane id=":1720192990_2_1" index="1" disallow="tram rail_urban rail rail_electric rail_fast ship container cable_car subway aircraft wheelchair scooter drone" speed="16.67" length="28.44" shape="789.61,512.21 790.23,503.83 791.35,498.04 793.92,492.82 798.95,486.19"/>
        <lane id=":1720192990_2_2" index="2" disallow="tram rail_urban rail rail_electric rail_fast ship container cable_car subway aircraft wheelchair scooter drone" speed="16.67" length="28.44" shape="792.81,512.42 793.47,504.28 794.67,498.68 797.31,493.64 802.26,487.20"/>
    </edge>
    <edge id=":1720193002_0" function="internal">
        <lane id=":1720193002_0_0" index="0" disallow="tram rail_urban rail rail_electric rail_fast ship container cable_car subway aircraft wheelchair scooter drone" speed="16.67" length="18.93" shape="900.30,523.15 900.90,542.06"/>
        <lane id=":1720193002_0_1" index="1" disallow="tram rail_urban rail rail_electric rail_fast ship container cable_car subway aircraft wheelchair scooter drone" speed="16.67" length="19.10" shape="897.11,523.30 897.72,542.40"/>
    </edge>
    <edge id=":1720193002_2" function="internal">
        <lane id=":1720193002_2_0" index="0" disallow="tram rail_urban rail rail_electric rail_fast ship container cable_car subway aircraft wheelchair scooter drone" speed="16.67" length="19.42" shape="897.11,523.30 897.30,529.13 896.88,533.18 895.43,536.97 892.52,542.00"/>
        <lane id=":1720193002_2_1" index="1" disallow="tram rail_urban rail rail_electric rail_fast ship container cable_car subway aircraft wheelchair scooter drone" speed="16.67" length="19.42" shape="893.91,523.46 894.04,529.07 893.51,532.95 891.99,536.57 889.12,541.41"/>
    </edge>
    <edge id=":1747163081_0" function="internal">
        <lane id=":1747163081_0_0" index="0" disallow="tram rail_urban rail rail_electric rail_fast ship container cable_car subway aircraft wheelchair scooter drone" speed="16.67" length="15.79" shape="874.98,461.93 876.70,466.21 878.07,469.07 879.81,471.72 882.62,475.37"/>
        <lane id=":1747163081_0_1" index="1" disallow="tram rail_urban rail rail_electric rail_fast ship container cable_car subway aircraft wheelchair scooter drone" speed="16.67" length="15.79" shape="872.18,463.56 873.96,467.95 875.40,470.88 877.20,473.60 880.11,477.35"/>
    </edge>
    <edge id=":1747163081_2" function="internal">
        <lane id=":1747163081_2_0" index="0" disallow="tram rail_urban rail rail_electric rail_fast ship container cable_car subway aircraft wheelchair scooter drone" speed="16.67" length="15.71" shape="867.61,467.65 871.89,469.73 874.70,471.44 877.09,473.69 880.11,477.35"/>
        <lane id=":1747163081_2_1" index="1" disallow="tram rail_urban rail rail_electric rail_fast ship container cable_car subway aircraft wheelchair scooter drone" speed="16.67" length="15.71" shape="865.55,470.22 869.65,472.17 872.38,473.76 874.70,475.86 877.59,479.33"/>
    </edge>
    <edge id=":1759697997_0" function="internal">
        <lane id=":1759697997_0_0" index="0" disallow="tram rail_urban rail rail_electric rail_fast ship container cable_car subway aircraft wheelchair scooter drone" speed="3.65" length="4.67" shape="693.62,357.06 693.40,355.64 693.72,354.80 694.58,354.56 695.98,354.91"/>
    </edge>
    <edge id=":1759697998_0" function="internal">
        <lane id=":1759697998_0_0" index="0" disallow="tram rail_urban rail rail_electric rail_fast ship container cable_car subway aircraft wheelchair scooter drone" speed="16.67" length="5.43" shape="798.46,575.17 798.56,573.62 798.58,572.56 798.54,571.50 798.44,569.96"/>
        <lane id=":1759697998_0_1" index="1" disallow="tram rail_urban rail rail_electric rail_fast ship container cable_car subway aircraft wheelchair scooter drone" speed="16.67" length="5.43" shape="801.66,575.38 801.76,573.71 801.78,572.56 801.74,571.42 801.63,569.75"/>
    </edge>
    <edge id=":1772221632_0" function="internal">
        <lane id=":1772221632_0_0" index="0" disallow="tram rail_urban rail rail_electric rail_fast ship container cable_car subway aircraft wheelchair scooter drone" speed="16.67" length="5.93" shape="885.64,577.80 880.49,574.99"/>
        <lane id=":1772221632_0_1" index="1" disallow="tram rail_urban rail rail_electric rail_fast ship container cable_car subway aircraft wheelchair scooter drone" speed="16.67" length="5.93" shape="887.23,575.02 881.96,572.15"/>
    </edge>
    <edge id=":2092725869_0" function="internal">
        <lane id=":2092725869_0_0" index="0" allow="pedestrian bicycle" speed="2.89" length="2.92" width="2.00" shape="715.51,606.22 716.00,606.98 716.03,607.54 715.60,607.90 714.71,608.05"/>
    </edge>
    <edge id=":2092725870_0" function="internal">
        <lane id=":2092725870_0_0" index="0" allow="pedestrian bicycle" speed="2.89" length="2.92" width="2.00" shape="717.69,497.83 718.49,498.25 718.79,498.72 718.60,499.25 717.90,499.82"/>
    </edge>
    <edge id=":2338632379_0" function="internal">
        <lane id=":2338632379_0_0" index="0" disallow="tram rail_urban rail rail_electric rail_fast ship container cable_car subway aircraft wheelchair scooter drone" speed="16.67" length="5.84" shape="800.38,459.28 801.75,460.12 802.73,460.62 803.77,461.00 805.31,461.49"/>
        <lane id=":2338632379_0_1" index="1" disallow="tram rail_urban rail rail_electric rail_fast ship container cable_car subway aircraft wheelchair scooter drone" speed="16.67" length="5.84" shape="798.67,461.98 800.25,462.95 801.38,463.53 802.58,463.98 804.34,464.54"/>
    </edge>
    <edge id=":2338632382_0" function="internal">
        <lane id=":2338632382_0_0" index="0" disallow="tram rail_urban rail rail_electric rail_fast ship container cable_car subway aircraft wheelchair scooter drone" speed="16.67" length="5.41" shape="786.30,479.16 786.02,477.63 785.80,476.58 785.54,475.54 785.13,474.03"/>
        <lane id=":2338632382_0_1" index="1" disallow="tram rail_urban rail rail_electric rail_fast ship container cable_car subway aircraft wheelchair scooter drone" speed="16.67" length="5.41" shape="789.45,478.61 789.16,476.99 788.93,475.88 788.65,474.79 788.22,473.19"/>
    </edge>
    <edge id=":2967896648_0" function="internal">
        <lane id=":2967896648_0_0" index="0" allow="pedestrian delivery bicycle" speed="3.65" length="4.67" shape="768.99,340.49 769.32,339.09 769.94,338.44 770.83,338.53 771.99,339.38"/>
    </edge>
    <edge id=":320676014_0" function="internal">
        <lane id=":320676014_0_0" index="0" allow="pedestrian bicycle" speed="5.56" length="2.35" width="2.00" shape="743.66,570.73 743.72,571.42 743.89,571.88 744.03,572.35 744.00,573.02"/>
    </edge>
    <edge id=":320676014_1" function="internal">
        <lane id=":320676014_1_0" index="0" allow="pedestrian bicycle" speed="5.56" length="2.01" width="2.00" shape="740.85,572.44 741.05,571.89 741.30,571.55 741.54,571.20 741.66,570.64"/>
    </edge>
    <edge id=":320676014_2" function="internal">
        <lane id=":320676014_2_0" index="0" allow="pedestrian delivery bicycle" speed="3.65" length="1.17" shape="740.85,572.44 741.66,571.60"/>
    </edge>
    <edge id=":320676014_3" function="internal">
        <lane id=":320676014_3_0" index="0" allow="pedestrian delivery bicycle" speed="3.65" length="3.50" shape="741.66,571.60 741.85,571.41 742.71,571.16 743.43,571.70 744.00,573.02"/>
    </edge>
    <edge id=":320676018_0" function="internal">
        <lane id=":320676018_0_0" index="0" allow="pedestrian bicycle" speed="2.89" length="2.92" width="2.00" shape="633.28,595.94 633.74,595.16 634.23,594.88 634.74,595.10 635.28,595.82"/>
    </edge>
    <edge id=":320676028_0" function="internal">
        <lane id=":320676028_0_0" index="0" allow="pedestrian bicycle" speed="2.89" length="2.92" width="2.00" shape="698.08,591.29 698.13,590.39 698.44,589.93 699.00,589.89 699.81,590.29"/>
    </edge>
    <edge id=":320748236_0" function="internal">
        <lane id=":320748236_0_0" index="0" allow="pedestrian delivery bicycle" speed="5.56" length="6.02" shape="938.75,622.38 934.62,618.00"/>
    </edge>
    <edge id=":320748236_1" function="internal">
        <lane id=":320748236_1_0" index="0" allow="pedestrian delivery bicycle" speed="3.65" length="1.44" shape="938.75,622.38 938.47,620.97"/>
    </edge>
    <edge id=":320748236_4" function="internal">
        <lane id=":320748236_4_0" index="0" allow="pedestrian delivery bicycle" speed="3.65" length="3.23" shape="938.47,620.97 938.75,620.12 939.60,619.84 941.01,620.12"/>
    </edge>
    <edge id=":320748236_2" function="internal">
        <lane id=":320748236_2_0" index="0" allow="pedestrian delivery bicycle" speed="5.56" length="5.83" shape="937.01,615.87 941.01,620.12"/>
    </edge>
    <edge id=":320748236_3" function="internal">
        <lane id=":320748236_3_0" index="0" allow="pedestrian delivery bicycle" speed="3.65" length="1.44" shape="937.01,615.87 937.21,617.30"/>
    </edge>
    <edge id=":320748236_5" function="internal">
        <lane id=":320748236_5_0" index="0" allow="pedestrian delivery bicycle" speed="3.65" length="3.23" shape="937.21,617.30 936.88,618.13 936.02,618.36 934.62,618.00"/>
    </edge>
    <edge id=":320750459_0" function="internal">
        <lane id=":320750459_0_0" index="0" disallow="tram rail_urban rail rail_electric rail_fast ship container cable_car subway aircraft wheelchair scooter drone" speed="16.67" length="5.56" shape="829.69,585.15 828.44,586.09 827.61,586.77 826.84,587.51 825.75,588.64"/>
        <lane id=":320750459_0_1" index="1" disallow="tram rail_urban rail rail_electric rail_fast ship container cable_car subway aircraft wheelchair scooter drone" speed="16.67" length="5.56" shape="827.78,582.58 826.40,583.62 825.48,584.37 824.62,585.19 823.43,586.44"/>
    </edge>
    <edge id=":3643470247_0" function="internal">
        <lane id=":3643470247_0_0" index="0" allow="pedestrian delivery bicycle" speed="5.56" length="5.19" shape="746.12,391.63 742.34,395.18"/>
    </edge>
    <edge id=":3643470247_1" function="internal">
        <lane id=":3643470247_1_0" index="0" allow="pedestrian delivery bicycle" speed="3.65" length="1.44" shape="746.12,391.63 744.70,391.89"/>
    </edge>
    <edge id=":3643470247_4" function="internal">
        <lane id=":3643470247_4_0" index="0" allow="pedestrian delivery bicycle" speed="3.65" length="3.23" shape="744.70,391.89 743.85,391.60 743.58,390.75 743.88,389.34"/>
    </edge>
    <edge id=":3643470247_2" function="internal">
        <lane id=":3643470247_2_0" index="0" allow="pedestrian delivery bicycle" speed="5.56" length="5.06" shape="740.19,392.81 743.88,389.34"/>
    </edge>
    <edge id=":3643470247_3" function="internal">
        <lane id=":3643470247_3_0" index="0" allow="pedestrian delivery bicycle" speed="3.65" length="1.44" shape="740.19,392.81 741.62,392.60"/>
    </edge>
    <edge id=":3643470247_5" function="internal">
        <lane id=":3643470247_5_0" index="0" allow="pedestrian delivery bicycle" speed="3.65" length="3.23" shape="741.62,392.60 742.45,392.92 742.69,393.79 742.34,395.18"/>
    </edge>
    <edge id=":3643470292_0" function="internal">
        <lane id=":3643470292_0_0" index="0" allow="pedestrian bicycle" speed="2.89" length="2.92" width="2.00" shape="904.50,558.59 904.01,559.34 903.51,559.60 903.01,559.36 902.50,558.62"/>
    </edge>
    <edge id=":3643470593_0" function="internal">
        <lane id=":3643470593_0_0" index="0" disallow="tram rail_urban rail rail_electric rail_fast ship container cable_car subway aircraft wheelchair scooter drone" speed="16.67" length="6.40" shape="902.26,558.74 902.71,565.05"/>
        <lane id=":3643470593_0_1" index="1" disallow="tram rail_urban rail rail_electric rail_fast ship container cable_car subway aircraft wheelchair scooter drone" speed="16.67" length="6.40" shape="899.06,558.88 899.52,565.33"/>
    </edge>
    <edge id=":3814259048_0" function="internal">
        <lane id=":3814259048_0_0" index="0" allow="pedestrian delivery bicycle" speed="3.65" length="4.67" shape="560.23,688.95 558.94,688.32 558.43,687.58 558.73,686.73 559.81,685.78"/>
    </edge>
    <edge id=":3833834902_0" function="internal">
        <lane id=":3833834902_0_0" index="0" allow="pedestrian bicycle" speed="2.89" length="2.92" width="2.00" shape="691.65,502.59 690.85,502.17 690.55,501.70 690.75,501.17 691.44,500.60"/>
    </edge>
    <edge id=":3856025916_0" function="internal">
        <lane id=":3856025916_0_0" index="0" allow="pedestrian delivery bicycle" speed="5.56" length="5.00" shape="714.21,626.16 709.24,626.68"/>
    </edge>
    <edge id=":3856025916_1" function="internal">
        <lane id=":3856025916_1_0" index="0" allow="pedestrian delivery bicycle" speed="3.65" length="4.67" shape="714.21,626.16 712.93,625.49 712.45,624.74 712.76,623.90 713.87,622.98"/>
    </edge>
    <edge id=":3856025916_2" function="internal">
        <lane id=":3856025916_2_0" index="0" allow="pedestrian delivery bicycle" speed="5.56" length="4.99" shape="708.90,623.50 713.87,622.98"/>
    </edge>
    <edge id=":3856025916_3" function="internal">
        <lane id=":3856025916_3_0" index="0" allow="pedestrian delivery bicycle" speed="3.65" length="4.67" shape="708.90,623.50 710.18,624.17 710.66,624.92 710.35,625.76 709.24,626.68"/>
    </edge>
    <edge id=":4642427986_0" function="internal">
        <lane id=":4642427986_0_0" index="0" allow="pedestrian delivery bicycle" speed="5.06" length="5.02" shape="752.55,426.76 751.50,425.89 750.41,425.56 749.29,425.78 748.15,426.55"/>
    </edge>
    <edge id=":4642427986_1" function="internal">
        <lane id=":4642427986_1_0" index="0" disallow="tram rail_urban rail rail_electric rail_fast ship container cable_car subway aircraft wheelchair scooter drone" speed="16.67" length="9.40" shape="752.55,426.76 746.24,419.79"/>
        <lane id=":4642427986_1_1" index="1" disallow="tram rail_urban rail rail_electric rail_fast ship container cable_car subway aircraft wheelchair scooter drone" speed="16.67" length="9.40" shape="754.92,424.61 748.61,417.64"/>
    </edge>
    <edge id=":4642427986_3" function="internal">
        <lane id=":4642427986_3_0" index="0" allow="pedestrian delivery bicycle" speed="5.03" length="5.01" shape="746.01,424.17 746.89,423.12 747.23,422.04 747.01,420.93 746.24,419.79"/>
    </edge>
    <edge id=":4642427986_4" function="internal">