<?xml version="1.0" encoding="UTF-8"?>

<!-- generated on 2024-09-03 01:37:02 by Eclipse SUMO duarouter Version 1.20.0
<configuration xmlns:xsi="http://www.w3.org/2001/XMLSchema-instance" xsi:noNamespaceSchemaLocation="http://sumo.dlr.de/xsd/duarouterConfiguration.xsd">

    <input>
        <net-file value="train_files/roundabout/easy/outputs/map(7)_dict/map(7)/map(7).net.xml"/>
        <route-files value="train_files/roundabout/easy/outputs/map(7)_dict/map(7)/map(7).trips.xml"/>
    </input>

    <output>
        <output-file value="train_files/roundabout/easy/outputs/map(7)_dict/map(7)/map(7).rou.xml"/>
    </output>

    <report>
        <ignore-errors value="true"/>
    </report>

</configuration>
-->

<routes xmlns:xsi="http://www.w3.org/2001/XMLSchema-instance" xsi:noNamespaceSchemaLocation="http://sumo.dlr.de/xsd/routes_file.xsd">
    <vehicle id="0" depart="0.00">
        <route edges="333459478 37188841#0 37188841#1 37188841#2 37188841#3 37188841#4 299348132 859038260 506259783 1227455262 32662001#0 32662001#1 -12714428#2 -12714428#1 -12714428#0"/>
    </vehicle>
    <vehicle id="1" depart="3.60">
        <route edges="-12713902#1 -12713902#0 37188841#0 37188841#1 37188841#2 37188841#3 37188841#4 299348132 12711223#0 12711223#1 12711223#2 12711223#3 12711223#4 12711223#5 12711223#6 12711223#7"/>
    </vehicle>
    <vehicle id="2" depart="7.20">
        <route edges="591606687#0 591606687#1 761295147"/>
    </vehicle>
    <vehicle id="3" depart="10.80">
        <route edges="84686444#0 84686444#1 761295146 503009616#0 503009616#1 503009616#2 503009617 299348132 859038260 506259783 1227455262 32662001#0 32662001#1 -12714428#2 -12714428#1 -12714428#0"/>
    </vehicle>
    <vehicle id="4" depart="14.40">
        <route edges="12714428#0 12714428#1 12714428#2 -12714428#2 -12714428#1 -12714428#0"/>
    </vehicle>
    <vehicle id="5" depart="18.00">
        <route edges="-12713902#1 -12713902#0 37188841#0 37188841#1 37188841#2 37188841#3 37188841#4 299348132 859038260 506259783 506259782 53565537#0 53565537#1 53565537#2 84686449#0 84686449#1 16880067#0 16880067#1"/>
    </vehicle>
    <vehicle id="6" depart="21.60">
        <route edges="-12711223#7 -12711223#6 -12711223#5 -12711223#4 12711223#4 12711223#5 12711223#6 12711223#7"/>
    </vehicle>
    <vehicle id="7" depart="25.20">
        <route edges="333459478 37188841#0 37188841#1 37188841#2 37188841#3 37188841#4 299348132 859038260 506259783 506259782 53565537#0 53565537#1 53565537#2 84686449#0 84686449#1 16880067#0 16880067#1"/>
    </vehicle>
    <vehicle id="8" depart="28.80">
        <route edges="-12713902#1 -12713902#0 37188841#0 37188841#1 37188841#2 37188841#3 37188841#4 299348132 859038260 506259783 506259782 53565537#0 53565537#1 53565537#2 84686449#0 84686449#1 16880067#0 16880067#1"/>
    </vehicle>
    <vehicle id="10" depart="36.00">
        <route edges="591606687#0 591606687#1 761295147"/>
    </vehicle>
    <vehicle id="11" depart="39.60">
        <route edges="12714428#0 12714428#1 12714428#2 -12714428#2 -12714428#1 -12714428#0"/>
    </vehicle>
    <vehicle id="13" depart="46.80">
        <route edges="-12711223#7 -12711223#6 -12711223#5 -12711223#4 -12711223#3 -12711223#2 -12711223#1 -12711223#0 859038260 506259783 1227455262 32662001#0 32662001#1 -12714428#2 -12714428#1 -12714428#0"/>
    </vehicle>
    <vehicle id="15" depart="54.00">
        <route edges="591606687#0 591606687#1 761295147"/>
    </vehicle>
    <vehicle id="16" depart="57.60">
        <route edges="32661903#0 32661903#1 32661903#2 52511947 84686442#0 84686442#1 84686442#2"/>
    </vehicle>
    <vehicle id="17" depart="61.20">
        <route edges="12714428#0 12714428#1 12714428#2 4028986#0 4028986#1 699868651#0 699868651#1 699868651#2 14457581#0 14457581#1 14457581#2 14457581#3 506259783 506259782 53565537#0 53565537#1 53565537#2 84686449#0 84686449#1 16880067#0 16880067#1"/>
    </vehicle>
    <vehicle id="19" depart="68.40">
        <route edges="84686444#0 84686444#1 761295146 52511947 84686449#0 84686449#1 16880067#0 16880067#1"/>
    </vehicle>
    <vehicle id="20" depart="72.00">
        <route edges="333459478 37188841#0 37188841#1 37188841#2 37188841#3 37188841#4 299348132 859038260 506259783 1227455262 32662001#0 32662001#1 -12714428#2 -12714428#1 -12714428#0"/>
    </vehicle>
    <vehicle id="21" depart="75.60">
        <route edges="-12713902#1 -12713902#0 37188841#0 37188841#1 37188841#2 37188841#3 37188841#4 299348132 12711223#0 12711223#1 12711223#2 12711223#3 12711223#4 12711223#5 12711223#6 12711223#7"/>
    </vehicle>
    <vehicle id="22" depart="79.20">
        <route edges="-12711223#7 -12711223#6 -12711223#5 -12711223#4 12711223#4 12711223#5 12711223#6 12711223#7"/>
    </vehicle>
    <vehicle id="23" depart="82.80">
        <route edges="-12711223#7 -12711223#6 -12711223#5 -12711223#4 12711223#4 12711223#5 12711223#6 12711223#7"/>
    </vehicle>
    <vehicle id="24" depart="86.40">
        <route edges="333459478 12713902#0 12713902#1"/>
    </vehicle>
    <vehicle id="25" depart="90.00">
        <route edges="12714428#0 12714428#1 12714428#2 4028986#0 4028986#1 699868651#0 699868651#1 699868651#2 14457581#0 14457581#1 14457581#2 14457581#3 506259783 506259782 32661907 503009617 299348132 12711223#0 12711223#1 12711223#2 12711223#3 12711223#4 12711223#5 12711223#6 12711223#7"/>
    </vehicle>
    <vehicle id="26" depart="93.60">
        <route edges="-12713902#1 -12713902#0 37188841#0 37188841#1 37188841#2 37188841#3 37188841#4 299348132 859038260 506259783 506259782 53565537#0 53565537#1 53565537#2 84686442#0 84686442#1 84686442#2"/>
    </vehicle>
    <vehicle id="27" depart="97.20">
        <route edges="333459478 37188841#0 37188841#1 37188841#2 37188841#3 37188841#4 299348132 859038260 506259783 506259782 53565537#0 53565537#1 53565537#2 84686449#0 84686449#1 16880067#0 16880067#1"/>
    </vehicle>
    <vehicle id="29" depart="104.40">
        <route edges="-12713902#1 -12713902#0 12713902#0 12713902#1"/>
    </vehicle>
    <vehicle id="30" depart="108.00">
        <route edges="84686444#0 84686444#1 761295146 52511947 84686449#0 84686449#1 16880067#0 16880067#1"/>
    </vehicle>
    <vehicle id="32" depart="115.20">
        <route edges="591606687#0 591606687#1 761295147"/>
    </vehicle>
    <vehicle id="33" depart="118.80">
        <route edges="-12713902#1 -12713902#0 37188841#0 37188841#1 37188841#2 37188841#3 37188841#4 299348132 859038260 506259783 1227455262 32662001#0 32662001#1 -12714428#2 -12714428#1 -12714428#0"/>
    </vehicle>
    <vehicle id="34" depart="122.40">
        <route edges="12714428#0 12714428#1 12714428#2 4028986#0 4028986#1 699868651#0 699868651#1 699868651#2 14457581#0 14457581#1 14457581#2 14457581#3 506259783 506259782 32661907 503009617 299348132 12711223#0 12711223#1 12711223#2 12711223#3 12711223#4 12711223#5 12711223#6 12711223#7"/>
    </vehicle>
    <vehicle id="35" depart="126.00">
        <route edges="-12713902#1 -12713902#0 37188841#0 37188841#1 37188841#2 37188841#3 37188841#4 299348132 859038260 506259783 506259782 53565537#0 53565537#1 53565537#2 84686442#0 84686442#1 84686442#2"/>
    </vehicle>
    <vehicle id="36" depart="129.60">
        <route edges="84686444#0 84686444#1 761295146 503009616#0 503009616#1 503009616#2 503009617 299348132 12711223#0 12711223#1 12711223#2 12711223#3 12711223#4 12711223#5 12711223#6 12711223#7"/>
    </vehicle>
    <vehicle id="37" depart="133.20">
        <route edges="333459478 12713902#0 12713902#1"/>
    </vehicle>
    <vehicle id="39" depart="140.40">
        <route edges="-12713902#1 -12713902#0 37188841#0 37188841#1 37188841#2 37188841#3 37188841#4 299348132 12711223#0 12711223#1 12711223#2 12711223#3 12711223#4 12711223#5 12711223#6 12711223#7"/>
    </vehicle>
    <vehicle id="40" depart="144.00">
        <route edges="32661903#0 32661903#1 32661903#2 503009616#0 503009616#1 503009616#2 503009617 299348132 12711223#0 12711223#1 12711223#2 12711223#3 12711223#4 12711223#5 12711223#6 12711223#7"/>
    </vehicle>
    <vehicle id="41" depart="147.60">
        <route edges="333459478 37188841#0 37188841#1 37188841#2 37188841#3 37188841#4 299348132 859038260 506259783 506259782 53565537#0 53565537#1 53565537#2 84686442#0 84686442#1 84686442#2"/>
    </vehicle>
    <vehicle id="42" depart="151.20">
        <route edges="12714428#0 12714428#1 12714428#2 4028986#0 4028986#1 699868651#0 699868651#1 699868651#2 14457581#0 14457581#1 14457581#2 14457581#3 506259783 506259782 32661907 503009617 299348132 12711223#0 12711223#1 12711223#2 12711223#3 12711223#4 12711223#5 12711223#6 12711223#7"/>
    </vehicle>
    <vehicle id="43" depart="154.80">
        <route edges="84686444#0 84686444#1 761295146 52511947 84686449#0 84686449#1 16880067#0 16880067#1"/>
    </vehicle>
    <vehicle id="44" depart="158.40">
        <route edges="-12711223#7 -12711223#6 -12711223#5 -12711223#4 -12711223#3 -12711223#2 -12711223#1 -12711223#0 859038260 506259783 1227455262 32662001#0 32662001#1 -12714428#2 -12714428#1 -12714428#0"/>
    </vehicle>
    <vehicle id="45" depart="162.00">
        <route edges="-12711223#7 -12711223#6 -12711223#5 -12711223#4 -12711223#3 -12711223#2 -12711223#1 -12711223#0 859038260 506259783 506259782 53565537#0 53565537#1 53565537#2 84686449#0 84686449#1 16880067#0 16880067#1"/>
    </vehicle>
    <vehicle id="48" depart="172.80">
        <route edges="84686444#0 84686444#1 761295146 52511947 84686449#0 84686449#1 16880067#0 16880067#1"/>
    </vehicle>
    <vehicle id="49" depart="176.40">
        <route edges="84686444#0 84686444#1 761295146 52511947 84686442#0 84686442#1 84686442#2"/>
    </vehicle>
    <vehicle id="51" depart="183.60">
        <route edges="333459478 37188841#0 37188841#1 37188841#2 37188841#3 37188841#4 299348132 859038260 506259783 506259782 53565537#0 53565537#1 53565537#2 84686449#0 84686449#1 16880067#0 16880067#1"/>
    </vehicle>
    <vehicle id="52" depart="187.20">
        <route edges="-12713902#1 -12713902#0 37188841#0 37188841#1 37188841#2 37188841#3 37188841#4 299348132 859038260 506259783 506259782 53565537#0 53565537#1 53565537#2 84686449#0 84686449#1 16880067#0 16880067#1"/>
    </vehicle>
    <vehicle id="54" depart="194.40">
        <route edges="32661903#0 32661903#1 32661903#2 52511947 84686442#0 84686442#1 84686442#2"/>
    </vehicle>
    <vehicle id="55" depart="198.00">
        <route edges="84686444#0 84686444#1 761295146 503009616#0 503009616#1 503009616#2 503009617 299348132 12711223#0 12711223#1 12711223#2 12711223#3 12711223#4 12711223#5 12711223#6 12711223#7"/>
    </vehicle>
    <vehicle id="56" depart="201.60">
        <route edges="32661903#0 32661903#1 32661903#2 503009616#0 503009616#1 503009616#2 503009617 299348132 12711223#0 12711223#1 12711223#2 12711223#3 12711223#4 12711223#5 12711223#6 12711223#7"/>
    </vehicle>
    <vehicle id="57" depart="205.20">
        <route edges="84686444#0 84686444#1 761295146 52511947 84686442#0 84686442#1 84686442#2"/>
    </vehicle>
    <vehicle id="58" depart="208.80">
        <route edges="12714428#0 12714428#1 12714428#2 4028986#0 4028986#1 699868651#0 699868651#1 699868651#2 14457581#0 14457581#1 14457581#2 14457581#3 506259783 506259782 53565537#0 53565537#1 53565537#2 84686449#0 84686449#1 16880067#0 16880067#1"/>
    </vehicle>
    <vehicle id="59" depart="212.40">
        <route edges="333459478 37188841#0 37188841#1 37188841#2 37188841#3 37188841#4 299348132 859038260 506259783 1227455262 32662001#0 32662001#1 -12714428#2 -12714428#1 -12714428#0"/>
    </vehicle>
    <vehicle id="62" depart="223.20">
        <route edges="-12711223#7 -12711223#6 -12711223#5 -12711223#4 12711223#4 12711223#5 12711223#6 12711223#7"/>
    </vehicle>
    <vehicle id="63" depart="226.80">
        <route edges="-12711223#7 -12711223#6 -12711223#5 -12711223#4 -12711223#3 -12711223#2 -12711223#1 -12711223#0 859038260 506259783 506259782 53565537#0 53565537#1 53565537#2 84686442#0 84686442#1 84686442#2"/>
    </vehicle>
    <vehicle id="65" depart="234.00">
        <route edges="12714428#0 12714428#1 12714428#2 -12714428#2 -12714428#1 -12714428#0"/>
    </vehicle>
    <vehicle id="66" depart="237.60">
        <route edges="84686444#0 84686444#1 761295146 52511947 84686442#0 84686442#1 84686442#2"/>
    </vehicle>
    <vehicle id="70" depart="252.00">
        <route edges="32661903#0 32661903#1 32661903#2 52511947 84686449#0 84686449#1 16880067#0 16880067#1"/>
    </vehicle>
    <vehicle id="71" depart="255.60">
        <route edges="-12713902#1 -12713902#0 37188841#0 37188841#1 37188841#2 37188841#3 37188841#4 299348132 859038260 506259783 506259782 53565537#0 53565537#1 53565537#2 84686442#0 84686442#1 84686442#2"/>
    </vehicle>
    <vehicle id="72" depart="259.20">
        <route edges="12714428#0 12714428#1 12714428#2 4028986#0 4028986#1 699868651#0 699868651#1 699868651#2 14457581#0 14457581#1 14457581#2 14457581#3 506259783 506259782 32661907 503009617 299348132 12711223#0 12711223#1 12711223#2 12711223#3 12711223#4 12711223#5 12711223#6 12711223#7"/>
    </vehicle>
    <vehicle id="74" depart="266.40">
        <route edges="-12713902#1 -12713902#0 37188841#0 37188841#1 37188841#2 37188841#3 37188841#4 299348132 12711223#0 12711223#1 12711223#2 12711223#3 12711223#4 12711223#5 12711223#6 12711223#7"/>
    </vehicle>
    <vehicle id="75" depart="270.00">
        <route edges="84686444#0 84686444#1 761295146 52511947 84686449#0 84686449#1 16880067#0 16880067#1"/>
    </vehicle>
    <vehicle id="76" depart="273.60">
        <route edges="32661903#0 32661903#1 32661903#2 52511947 84686449#0 84686449#1 16880067#0 16880067#1"/>
    </vehicle>
    <vehicle id="77" depart="277.20">
        <route edges="-12711223#7 -12711223#6 -12711223#5 -12711223#4 12711223#4 12711223#5 12711223#6 12711223#7"/>
    </vehicle>
    <vehicle id="78" depart="280.80">
        <route edges="12714428#0 12714428#1 12714428#2 4028986#0 4028986#1 699868651#0 699868651#1 699868651#2 14457581#0 14457581#1 14457581#2 14457581#3 506259783 506259782 53565537#0 53565537#1 53565537#2 84686449#0 84686449#1 16880067#0 16880067#1"/>
    </vehicle>
    <vehicle id="79" depart="284.40">
        <route edges="-12713902#1 -12713902#0 37188841#0 37188841#1 37188841#2 37188841#3 37188841#4 299348132 12711223#0 12711223#1 12711223#2 12711223#3 12711223#4 12711223#5 12711223#6 12711223#7"/>
    </vehicle>
    <vehicle id="80" depart="288.00">
        <route edges="-12711223#7 -12711223#6 -12711223#5 -12711223#4 -12711223#3 -12711223#2 -12711223#1 -12711223#0 859038260 506259783 506259782 53565537#0 53565537#1 53565537#2 84686449#0 84686449#1 16880067#0 16880067#1"/>
    </vehicle>
    <vehicle id="81" depart="291.60">
        <route edges="-12713902#1 -12713902#0 37188841#0 37188841#1 37188841#2 37188841#3 37188841#4 299348132 859038260 506259783 506259782 53565537#0 53565537#1 53565537#2 84686442#0 84686442#1 84686442#2"/>
    </vehicle>
    <vehicle id="82" depart="295.20">
        <route edges="84686444#0 84686444#1 761295146 503009616#0 503009616#1 503009616#2 503009617 299348132 859038260 506259783 1227455262 32662001#0 32662001#1 -12714428#2 -12714428#1 -12714428#0"/>
    </vehicle>
    <vehicle id="84" depart="302.40">
        <route edges="-12713902#1 -12713902#0 37188841#0 37188841#1 37188841#2 37188841#3 37188841#4 299348132 859038260 506259783 1227455262 32662001#0 32662001#1 -12714428#2 -12714428#1 -12714428#0"/>
    </vehicle>
    <vehicle id="85" depart="306.00">
        <route edges="84686444#0 84686444#1 761295146 52511947 84686449#0 84686449#1 16880067#0 16880067#1"/>
    </vehicle>
    <vehicle id="90" depart="324.00">
        <route edges="591606687#0 591606687#1 761295147"/>
    </vehicle>
    <vehicle id="91" depart="327.60">
        <route edges="84686444#0 84686444#1 761295146 503009616#0 503009616#1 503009616#2 503009617 299348132 859038260 506259783 1227455262 32662001#0 32662001#1 -12714428#2 -12714428#1 -12714428#0"/>
    </vehicle>
    <vehicle id="93" depart="334.80">
        <route edges="84686444#0 84686444#1 761295146 503009616#0 503009616#1 503009616#2 503009617 299348132 12711223#0 12711223#1 12711223#2 12711223#3 12711223#4 12711223#5 12711223#6 12711223#7"/>
    </vehicle>
    <vehicle id="94" depart="338.40">
        <route edges="-12713902#1 -12713902#0 12713902#0 12713902#1"/>
    </vehicle>
    <vehicle id="95" depart="342.00">
        <route edges="12714428#0 12714428#1 12714428#2 4028986#0 4028986#1 699868651#0 699868651#1 699868651#2 14457581#0 14457581#1 14457581#2 14457581#3 506259783 506259782 32661907 503009617 299348132 12711223#0 12711223#1 12711223#2 12711223#3 12711223#4 12711223#5 12711223#6 12711223#7"/>
    </vehicle>
    <vehicle id="96" depart="345.60">
        <route edges="-12713902#1 -12713902#0 37188841#0 37188841#1 37188841#2 37188841#3 37188841#4 299348132 859038260 506259783 506259782 53565537#0 53565537#1 53565537#2 84686442#0 84686442#1 84686442#2"/>
    </vehicle>
    <vehicle id="97" depart="349.20">
        <route edges="32661903#0 32661903#1 32661903#2 52511947 84686442#0 84686442#1 84686442#2"/>
    </vehicle>
    <vehicle id="98" depart="352.80">
        <route edges="32661903#0 32661903#1 32661903#2 503009616#0 503009616#1 503009616#2 503009617 299348132 859038260 506259783 1227455262 32662001#0 32662001#1 -12714428#2 -12714428#1 -12714428#0"/>
    </vehicle>
    <vehicle id="99" depart="356.40">
        <route edges="84686444#0 84686444#1 761295146 52511947 84686442#0 84686442#1 84686442#2"/>
    </vehicle>
    <vehicle id="100" depart="360.00">
        <route edges="84686444#0 84686444#1 761295146 52511947 84686442#0 84686442#1 84686442#2"/>
    </vehicle>
    <vehicle id="102" depart="367.20">
        <route edges="32661903#0 32661903#1 32661903#2 503009616#0 503009616#1 503009616#2 503009617 299348132 12711223#0 12711223#1 12711223#2 12711223#3 12711223#4 12711223#5 12711223#6 12711223#7"/>
    </vehicle>
    <vehicle id="103" depart="370.80">
        <route edges="12714428#0 12714428#1 12714428#2 -12714428#2 -12714428#1 -12714428#0"/>
    </vehicle>
    <vehicle id="104" depart="374.40">
        <route edges="12714428#0 12714428#1 12714428#2 4028986#0 4028986#1 699868651#0 699868651#1 699868651#2 14457581#0 14457581#1 14457581#2 14457581#3 506259783 506259782 53565537#0 53565537#1 53565537#2 84686442#0 84686442#1 84686442#2"/>
    </vehicle>
    <vehicle id="107" depart="385.20">
        <route edges="84686444#0 84686444#1 761295146 52511947 84686442#0 84686442#1 84686442#2"/>
    </vehicle>
    <vehicle id="109" depart="392.40">
        <route edges="-12713902#1 -12713902#0 37188841#0 37188841#1 37188841#2 37188841#3 37188841#4 299348132 12711223#0 12711223#1 12711223#2 12711223#3 12711223#4 12711223#5 12711223#6 12711223#7"/>
    </vehicle>
    <vehicle id="110" depart="396.00">
        <route edges="84686444#0 84686444#1 761295146 52511947 84686449#0 84686449#1 16880067#0 16880067#1"/>
    </vehicle>
    <vehicle id="112" depart="403.20">
        <route edges="-12711223#7 -12711223#6 -12711223#5 -12711223#4 -12711223#3 -12711223#2 -12711223#1 -12711223#0 859038260 506259783 506259782 53565537#0 53565537#1 53565537#2 84686449#0 84686449#1 16880067#0 16880067#1"/>
    </vehicle>
    <vehicle id="113" depart="406.80">
        <route edges="32661903#0 32661903#1 32661903#2 52511947 84686442#0 84686442#1 84686442#2"/>
    </vehicle>
    <vehicle id="114" depart="410.40">
        <route edges="-12713902#1 -12713902#0 37188841#0 37188841#1 37188841#2 37188841#3 37188841#4 299348132 859038260 506259783 506259782 53565537#0 53565537#1 53565537#2 84686442#0 84686442#1 84686442#2"/>
    </vehicle>
    <vehicle id="115" depart="414.00">
        <route edges="-12711223#7 -12711223#6 -12711223#5 -12711223#4 12711223#4 12711223#5 12711223#6 12711223#7"/>
    </vehicle>
    <vehicle id="117" depart="421.20">
        <route edges="-12713902#1 -12713902#0 37188841#0 37188841#1 37188841#2 37188841#3 37188841#4 299348132 859038260 506259783 1227455262 32662001#0 32662001#1 -12714428#2 -12714428#1 -12714428#0"/>
    </vehicle>
    <vehicle id="118" depart="424.80">
        <route edges="84686444#0 84686444#1 761295146 503009616#0 503009616#1 503009616#2 503009617 299348132 12711223#0 12711223#1 12711223#2 12711223#3 12711223#4 12711223#5 12711223#6 12711223#7"/>
    </vehicle>
    <vehicle id="119" depart="428.40">
        <route edges="333459478 37188841#0 37188841#1 37188841#2 37188841#3 37188841#4 299348132 859038260 506259783 506259782 53565537#0 53565537#1 53565537#2 84686449#0 84686449#1 16880067#0 16880067#1"/>
    </vehicle>
    <vehicle id="120" depart="432.00">
        <route edges="12714428#0 12714428#1 12714428#2 4028986#0 4028986#1 699868651#0 699868651#1 699868651#2 14457581#0 14457581#1 14457581#2 14457581#3 506259783 506259782 53565537#0 53565537#1 53565537#2 84686449#0 84686449#1 16880067#0 16880067#1"/>
    </vehicle>
    <vehicle id="121" depart="435.60">
        <route edges="32661903#0 32661903#1 32661903#2 52511947 84686442#0 84686442#1 84686442#2"/>
    </vehicle>
    <vehicle id="123" depart="442.80">
        <route edges="-12713902#1 -12713902#0 12713902#0 12713902#1"/>
    </vehicle>
    <vehicle id="124" depart="446.40">
        <route edges="333459478 37188841#0 37188841#1 37188841#2 37188841#3 37188841#4 299348132 12711223#0 12711223#1 12711223#2 12711223#3 12711223#4 12711223#5 12711223#6 12711223#7"/>
    </vehicle>
    <vehicle id="127" depart="457.20">
        <route edges="84686444#0 84686444#1 761295146 52511947 84686442#0 84686442#1 84686442#2"/>
    </vehicle>
    <vehicle id="128" depart="460.80">
        <route edges="-12711223#7 -12711223#6 -12711223#5 -12711223#4 12711223#4 12711223#5 12711223#6 12711223#7"/>
    </vehicle>
    <vehicle id="129" depart="464.40">
        <route edges="-12713902#1 -12713902#0 37188841#0 37188841#1 37188841#2 37188841#3 37188841#4 299348132 859038260 506259783 506259782 53565537#0 53565537#1 53565537#2 84686442#0 84686442#1 84686442#2"/>
    </vehicle>
    <vehicle id="130" depart="468.00">
        <route edges="84686444#0 84686444#1 761295146 52511947 84686442#0 84686442#1 84686442#2"/>
    </vehicle>
    <vehicle id="131" depart="471.60">
        <route edges="12714428#0 12714428#1 12714428#2 -12714428#2 -12714428#1 -12714428#0"/>
    </vehicle>
    <vehicle id="132" depart="475.20">
        <route edges="591606687#0 591606687#1 761295147"/>
    </vehicle>
    <vehicle id="133" depart="478.80">
        <route edges="333459478 37188841#0 37188841#1 37188841#2 37188841#3 37188841#4 299348132 859038260 506259783 506259782 53565537#0 53565537#1 53565537#2 84686442#0 84686442#1 84686442#2"/>
    </vehicle>
    <vehicle id="134" depart="482.40">
        <route edges="333459478 37188841#0 37188841#1 37188841#2 37188841#3 37188841#4 299348132 859038260 506259783 1227455262 32662001#0 32662001#1 -12714428#2 -12714428#1 -12714428#0"/>
    </vehicle>
    <vehicle id="136" depart="489.60">
        <route edges="333459478 37188841#0 37188841#1 37188841#2 37188841#3 37188841#4 299348132 859038260 506259783 506259782 53565537#0 53565537#1 53565537#2 84686442#0 84686442#1 84686442#2"/>
    </vehicle>
    <vehicle id="137" depart="493.20">
        <route edges="-12711223#7 -12711223#6 -12711223#5 -12711223#4 -12711223#3 -12711223#2 -12711223#1 -12711223#0 859038260 506259783 1227455262 32662001#0 32662001#1 -12714428#2 -12714428#1 -12714428#0"/>
    </vehicle>
    <vehicle id="138" depart="496.80">
        <route edges="-12711223#7 -12711223#6 -12711223#5 -12711223#4 -12711223#3 -12711223#2 -12711223#1 -12711223#0 859038260 506259783 506259782 53565537#0 53565537#1 53565537#2 84686449#0 84686449#1 16880067#0 16880067#1"/>
    </vehicle>
    <vehicle id="139" depart="500.40">
        <route edges="-12713902#1 -12713902#0 37188841#0 37188841#1 37188841#2 37188841#3 37188841#4 299348132 859038260 506259783 506259782 53565537#0 53565537#1 53565537#2 84686449#0 84686449#1 16880067#0 16880067#1"/>
    </vehicle>
    <vehicle id="141" depart="507.60">
        <route edges="333459478 37188841#0 37188841#1 37188841#2 37188841#3 37188841#4 299348132 12711223#0 12711223#1 12711223#2 12711223#3 12711223#4 12711223#5 12711223#6 12711223#7"/>
    </vehicle>
    <vehicle id="142" depart="511.20">
        <route edges="32661903#0 32661903#1 32661903#2 52511947 84686442#0 84686442#1 84686442#2"/>
    </vehicle>
    <vehicle id="144" depart="518.40">
        <route edges="12714428#0 12714428#1 12714428#2 4028986#0 4028986#1 699868651#0 699868651#1 699868651#2 14457581#0 14457581#1 14457581#2 14457581#3 506259783 506259782 32661907 503009617 299348132 12711223#0 12711223#1 12711223#2 12711223#3 12711223#4 12711223#5 12711223#6 12711223#7"/>
    </vehicle>
    <vehicle id="146" depart="525.60">
        <route edges="333459478 37188841#0 37188841#1 37188841#2 37188841#3 37188841#4 299348132 12711223#0 12711223#1 12711223#2 12711223#3 12711223#4 12711223#5 12711223#6 12711223#7"/>
    </vehicle>
    <vehicle id="148" depart="532.80">
        <route edges="12714428#0 12714428#1 12714428#2 -12714428#2 -12714428#1 -12714428#0"/>
    </vehicle>
    <vehicle id="149" depart="536.40">
        <route edges="-12711223#7 -12711223#6 -12711223#5 -12711223#4 -12711223#3 -12711223#2 -12711223#1 -12711223#0 859038260 506259783 506259782 53565537#0 53565537#1 53565537#2 84686442#0 84686442#1 84686442#2"/>
    </vehicle>
    <vehicle id="150" depart="540.00">
        <route edges="84686444#0 84686444#1 761295146 52511947 84686449#0 84686449#1 16880067#0 16880067#1"/>
    </vehicle>
    <vehicle id="152" depart="547.20">
        <route edges="-12713902#1 -12713902#0 37188841#0 37188841#1 37188841#2 37188841#3 37188841#4 299348132 859038260 506259783 1227455262 32662001#0 32662001#1 -12714428#2 -12714428#1 -12714428#0"/>
    </vehicle>
    <vehicle id="153" depart="550.80">
        <route edges="12714428#0 12714428#1 12714428#2 4028986#0 4028986#1 699868651#0 699868651#1 699868651#2 14457581#0 14457581#1 14457581#2 14457581#3 506259783 506259782 53565537#0 53565537#1 53565537#2 84686442#0 84686442#1 84686442#2"/>
    </vehicle>
    <vehicle id="155" depart="558.00">
        <route edges="84686444#0 84686444#1 761295146 503009616#0 503009616#1 503009616#2 503009617 299348132 12711223#0 12711223#1 12711223#2 12711223#3 12711223#4 12711223#5 12711223#6 12711223#7"/>
    </vehicle>
    <vehicle id="156" depart="561.60">
        <route edges="-12713902#1 -12713902#0 37188841#0 37188841#1 37188841#2 37188841#3 37188841#4 299348132 859038260 506259783 1227455262 32662001#0 32662001#1 -12714428#2 -12714428#1 -12714428#0"/>
    </vehicle>
    <vehicle id="158" depart="568.80">
        <route edges="12714428#0 12714428#1 12714428#2 4028986#0 4028986#1 699868651#0 699868651#1 699868651#2 14457581#0 14457581#1 14457581#2 14457581#3 506259783 506259782 53565537#0 53565537#1 53565537#2 84686449#0 84686449#1 16880067#0 16880067#1"/>
    </vehicle>
    <vehicle id="159" depart="572.40">
        <route edges="-12713902#1 -12713902#0 37188841#0 37188841#1 37188841#2 37188841#3 37188841#4 299348132 859038260 506259783 506259782 53565537#0 53565537#1 53565537#2 84686442#0 84686442#1 84686442#2"/>
    </vehicle>
    <vehicle id="160" depart="576.00">
        <route edges="84686444#0 84686444#1 761295146 52511947 84686442#0 84686442#1 84686442#2"/>
    </vehicle>
    <vehicle id="163" depart="586.80">
        <route edges="12714428#0 12714428#1 12714428#2 4028986#0 4028986#1 699868651#0 699868651#1 699868651#2 14457581#0 14457581#1 14457581#2 14457581#3 506259783 506259782 53565537#0 53565537#1 53565537#2 84686442#0 84686442#1 84686442#2"/>
    </vehicle>
    <vehicle id="167" depart="601.20">
        <route edges="84686444#0 84686444#1 761295146 52511947 84686442#0 84686442#1 84686442#2"/>
    </vehicle>
    <vehicle id="169" depart="608.40">
        <route edges="32661903#0 32661903#1 32661903#2 503009616#0 503009616#1 503009616#2 503009617 299348132 12711223#0 12711223#1 12711223#2 12711223#3 12711223#4 12711223#5 12711223#6 12711223#7"/>
    </vehicle>
    <vehicle id="171" depart="615.60">
        <route edges="-12711223#7 -12711223#6 -12711223#5 -12711223#4 12711223#4 12711223#5 12711223#6 12711223#7"/>
    </vehicle>
    <vehicle id="172" depart="619.20">
        <route edges="12714428#0 12714428#1 12714428#2 4028986#0 4028986#1 699868651#0 699868651#1 699868651#2 14457581#0 14457581#1 14457581#2 14457581#3 506259783 506259782 53565537#0 53565537#1 53565537#2 84686442#0 84686442#1 84686442#2"/>
    </vehicle>
    <vehicle id="173" depart="622.80">
        <route edges="84686444#0 84686444#1 761295146 503009616#0 503009616#1 503009616#2 503009617 299348132 12711223#0 12711223#1 12711223#2 12711223#3 12711223#4 12711223#5 12711223#6 12711223#7"/>
    </vehicle>
    <vehicle id="174" depart="626.40">
        <route edges="333459478 12713902#0 12713902#1"/>
    </vehicle>
    <vehicle id="175" depart="630.00">
        <route edges="84686444#0 84686444#1 761295146 52511947 84686449#0 84686449#1 16880067#0 16880067#1"/>
    </vehicle>
    <vehicle id="176" depart="633.60">
        <route edges="84686444#0 84686444#1 761295146 503009616#0 503009616#1 503009616#2 503009617 299348132 859038260 506259783 1227455262 32662001#0 32662001#1 -12714428#2 -12714428#1 -12714428#0"/>
    </vehicle>
    <vehicle id="177" depart="637.20">
        <route edges="84686444#0 84686444#1 761295146 503009616#0 503009616#1 503009616#2 503009617 299348132 12711223#0 12711223#1 12711223#2 12711223#3 12711223#4 12711223#5 12711223#6 12711223#7"/>
    </vehicle>
    <vehicle id="178" depart="640.80">
        <route edges="84686444#0 84686444#1 761295146 503009616#0 503009616#1 503009616#2 503009617 299348132 12711223#0 12711223#1 12711223#2 12711223#3 12711223#4 12711223#5 12711223#6 12711223#7"/>
    </vehicle>
    <vehicle id="181" depart="651.60">