<?xml version="1.0" encoding="UTF-8"?>

<!-- generated on 2024-09-03 01:37:53 by Eclipse SUMO netconvert Version 1.20.0
<configuration xmlns:xsi="http://www.w3.org/2001/XMLSchema-instance" xsi:noNamespaceSchemaLocation="http://sumo.dlr.de/xsd/netconvertConfiguration.xsd">

    <input>
        <osm-files value="train_files/roundabout/middle/osm_files/map(4).osm"/>
    </input>

    <output>
        <output-file value="train_files/roundabout/middle/outputs/map(4)_dict/map(4)/map(4).net.xml"/>
    </output>

    <projection>
        <proj.utm value="true"/>
    </projection>

    <building_defaults>
        <default.junctions.keep-clear value="false"/>
    </building_defaults>

</configuration>
-->

<net version="1.20" junctionCornerDetail="5" limitTurnSpeed="5.50" xmlns:xsi="http://www.w3.org/2001/XMLSchema-instance" xsi:noNamespaceSchemaLocation="http://sumo.dlr.de/xsd/net_file.xsd">

    <location netOffset="-446516.24,-5413796.78" convBoundary="0.00,0.00,582.47,382.11" origBoundary="2.270554,48.874825,2.278504,48.878258" projParameter="+proj=utm +zone=31 +ellps=WGS84 +datum=WGS84 +units=m +no_defs"/>

    <type id="highway.cycleway" priority="1" numLanes="1" speed="5.56" allow="bicycle" oneway="0" width="2.00"/>
    <type id="highway.footway" priority="1" numLanes="1" speed="2.78" allow="pedestrian" oneway="1" width="2.00"/>
    <type id="highway.path" priority="1" numLanes="1" speed="5.56" allow="pedestrian bicycle" oneway="0" width="2.00"/>
    <type id="highway.primary" priority="12" numLanes="2" speed="27.78" disallow="tram rail_urban rail rail_electric rail_fast ship container cable_car subway aircraft wheelchair scooter drone" oneway="0"/>
    <type id="highway.tertiary" priority="10" numLanes="1" speed="22.22" disallow="tram rail_urban rail rail_electric rail_fast ship container cable_car subway aircraft wheelchair scooter drone" oneway="0"/>
    <type id="highway.tertiary_link" priority="5" numLanes="1" speed="22.22" disallow="tram rail_urban rail rail_electric rail_fast ship container cable_car subway aircraft wheelchair scooter drone" oneway="0"/>
    <type id="highway.track" priority="1" numLanes="1" speed="5.56" allow="pedestrian motorcycle moped bicycle" oneway="0"/>

    <edge id=":1631799407_0" function="internal">
        <lane id=":1631799407_0_0" index="0" allow="pedestrian bicycle" speed="2.89" length="2.92" width="2.00" shape="19.43,288.59 18.53,288.56 18.05,288.26 18.00,287.70 18.38,286.89"/>
    </edge>
    <edge id=":1962508614_0" function="internal">
        <lane id=":1962508614_0_0" index="0" disallow="tram rail_urban rail rail_electric rail_fast ship container cable_car subway aircraft wheelchair scooter drone" speed="3.65" length="4.67" shape="56.25,240.83 54.82,240.64 54.11,240.10 54.12,239.20 54.84,237.96"/>
    </edge>
    <edge id=":21663173_0" function="internal">
        <lane id=":21663173_0_0" index="0" disallow="tram rail_urban rail rail_electric rail_fast ship container cable_car subway aircraft wheelchair scooter drone" speed="3.67" length="4.57" shape="486.15,239.93 487.05,241.01 487.21,241.88 486.61,242.52 485.27,242.94"/>
    </edge>
    <edge id=":21663174_0" function="internal">
        <lane id=":21663174_0_0" index="0" disallow="tram rail_urban rail rail_electric rail_fast ship container cable_car subway aircraft wheelchair scooter drone" speed="8.33" length="21.42" shape="362.40,226.70 355.59,226.11 350.00,224.94 345.34,223.71 341.37,222.89"/>
    </edge>
    <edge id=":21663174_1" function="internal">
        <lane id=":21663174_1_0" index="0" disallow="tram rail_urban rail rail_electric rail_fast ship container cable_car subway aircraft wheelchair scooter drone" speed="8.33" length="21.90" shape="362.40,226.70 355.65,225.98 350.27,224.12 346.23,221.10 343.56,216.94"/>
        <lane id=":21663174_1_1" index="1" disallow="tram rail_urban rail rail_electric rail_fast ship container cable_car subway aircraft wheelchair scooter drone" speed="8.33" length="21.90" shape="362.46,223.50 356.60,222.75 351.80,220.75 348.05,217.49 345.36,212.97"/>
    </edge>
    <edge id=":21663176_0" function="internal">
        <lane id=":21663176_0_0" index="0" disallow="tram rail_urban rail rail_electric rail_fast ship container cable_car subway aircraft wheelchair scooter drone" speed="7.72" length="0.91" shape="354.12,186.25 354.38,186.08 354.55,185.95 354.74,185.86 355.03,185.79"/>
        <lane id=":21663176_0_1" index="1" disallow="tram rail_urban rail rail_electric rail_fast ship container cable_car subway aircraft wheelchair scooter drone" speed="8.33" length="0.91" shape="355.71,189.03 354.92,189.04"/>
    </edge>
    <edge id=":2499644864_0" function="internal">
        <lane id=":2499644864_0_0" index="0" disallow="tram rail_urban rail rail_electric rail_fast ship container cable_car subway aircraft wheelchair scooter drone" speed="8.33" length="0.27" shape="451.97,229.52 452.23,229.59"/>
    </edge>
    <edge id=":2499644866_0" function="internal">
        <lane id=":2499644866_0_0" index="0" disallow="tram rail_urban rail rail_electric rail_fast ship container cable_car subway aircraft wheelchair scooter drone" speed="8.33" length="0.29" shape="450.42,237.99 450.11,237.92"/>
        <lane id=":2499644866_0_1" index="1" disallow="tram rail_urban rail rail_electric rail_fast ship container cable_car subway aircraft wheelchair scooter drone" speed="8.33" length="0.29" shape="451.15,234.88 450.89,234.81"/>
    </edge>
    <edge id=":258152996_0" function="internal">
        <lane id=":258152996_0_0" index="0" allow="pedestrian bicycle" speed="2.89" length="2.92" width="2.00" shape="371.44,84.46 372.02,83.77 372.55,83.58 373.02,83.88 373.43,84.68"/>
    </edge>
    <edge id=":271449285_0" function="internal">
        <lane id=":271449285_0_0" index="0" disallow="tram rail_urban rail rail_electric rail_fast ship container cable_car subway aircraft wheelchair scooter drone" speed="8.33" length="6.91" shape="326.04,220.85 324.03,220.85 322.64,221.24 321.25,221.61 319.24,221.55"/>
    </edge>
    <edge id=":271449285_1" function="internal">
        <lane id=":271449285_1_0" index="0" disallow="tram rail_urban rail rail_electric rail_fast ship container cable_car subway aircraft wheelchair scooter drone" speed="4.65" length="7.22" shape="326.04,220.85 323.35,220.30 322.15,219.56 322.45,218.64 324.24,217.55"/>
    </edge>
    <edge id=":271449285_2" function="internal">
        <lane id=":271449285_2_0" index="0" disallow="tram rail_urban rail rail_electric rail_fast ship container cable_car subway aircraft wheelchair scooter drone" speed="8.33" length="4.69" shape="319.76,218.40 321.12,218.56 322.07,218.47 322.99,218.14 324.24,217.55"/>
    </edge>
    <edge id=":271449285_3" function="internal">
        <lane id=":271449285_3_0" index="0" disallow="tram rail_urban rail rail_electric rail_fast ship container cable_car subway aircraft wheelchair scooter drone" speed="3.65" length="4.67" shape="319.76,218.40 320.81,219.38 321.08,220.24 320.55,220.96 319.24,221.55"/>
    </edge>
    <edge id=":271450838_0" function="internal">
        <lane id=":271450838_0_0" index="0" disallow="tram rail_urban rail rail_electric rail_fast ship container cable_car subway aircraft wheelchair scooter drone" speed="13.89" length="4.84" shape="349.15,175.13 353.50,177.25"/>
        <lane id=":271450838_0_1" index="1" disallow="tram rail_urban rail rail_electric rail_fast ship container cable_car subway aircraft wheelchair scooter drone" speed="13.89" length="4.84" shape="347.75,178.00 352.10,180.13"/>
    </edge>
    <edge id=":271451733_0" function="internal">
        <lane id=":271451733_0_0" index="0" allow="pedestrian bicycle" speed="2.89" length="2.92" width="2.00" shape="350.10,247.63 350.78,248.22 350.97,248.75 350.66,249.21 349.86,249.62"/>
    </edge>
    <edge id=":27336484_0" function="internal">
        <lane id=":27336484_0_0" index="0" disallow="tram rail_urban rail rail_electric rail_fast ship container cable_car subway aircraft wheelchair scooter drone" speed="11.11" length="18.94" shape="357.08,179.00 362.32,181.30 366.02,182.70 369.53,184.41 374.22,187.61"/>
        <lane id=":27336484_0_1" index="1" disallow="tram rail_urban rail rail_electric rail_fast ship container cable_car subway aircraft wheelchair scooter drone" speed="11.11" length="18.94" shape="355.68,181.87 360.75,184.10 364.34,185.44 367.74,187.07 372.28,190.15"/>
    </edge>
    <edge id=":27336484_2" function="internal">
        <lane id=":27336484_2_0" index="0" disallow="tram rail_urban rail rail_electric rail_fast ship container cable_car subway aircraft wheelchair scooter drone" speed="8.33" length="18.51" shape="355.23,185.76 361.57,185.08 366.85,185.16 371.07,186.00 374.22,187.61"/>
        <lane id=":27336484_2_1" index="1" disallow="tram rail_urban rail rail_electric rail_fast ship container cable_car subway aircraft wheelchair scooter drone" speed="8.33" length="18.51" shape="355.12,189.01 361.07,188.33 365.92,188.29 369.65,188.90 372.28,190.15"/>
    </edge>
    <edge id=":27336500_0" function="internal">
        <lane id=":27336500_0_0" index="0" disallow="tram rail_urban rail rail_electric rail_fast ship container cable_car subway aircraft wheelchair scooter drone" speed="9.04" length="5.62" shape="342.86,196.03 343.27,194.46 343.25,193.32 342.90,192.18 342.31,190.62"/>
    </edge>
    <edge id=":27336500_1" function="internal">
        <lane id=":27336500_1_0" index="0" disallow="tram rail_urban rail rail_electric rail_fast ship container cable_car subway aircraft wheelchair scooter drone" speed="8.33" length="5.46" shape="342.86,196.03 343.57,194.43 344.34,193.50 345.28,192.65 346.50,191.34"/>
        <lane id=":27336500_1_1" index="1" disallow="tram rail_urban rail rail_electric rail_fast ship container cable_car subway aircraft wheelchair scooter drone" speed="8.33" length="5.46" shape="345.89,197.05 346.49,195.77 347.17,195.05 347.98,194.40 349.00,193.34"/>
    </edge>
    <edge id=":27336542_0" function="internal">
        <lane id=":27336542_0_0" index="0" disallow="tram rail_urban rail rail_electric rail_fast ship container cable_car subway aircraft wheelchair scooter drone" speed="8.33" length="4.71" shape="340.90,210.86 340.60,209.36 340.33,208.33 340.19,207.30 340.27,205.79"/>
        <lane id=":27336542_0_1" index="1" disallow="tram rail_urban rail rail_electric rail_fast ship container cable_car subway aircraft wheelchair scooter drone" speed="8.33" length="4.71" shape="344.07,210.36 343.80,209.12 343.54,208.27 343.39,207.42 343.45,206.17"/>
    </edge>
    <edge id=":27336542_2" function="internal">
        <lane id=":27336542_2_0" index="0" disallow="tram rail_urban rail rail_electric rail_fast ship container cable_car subway aircraft wheelchair scooter drone" speed="8.33" length="5.96" shape="337.06,210.53 338.42,209.39 339.34,208.52 339.93,207.47 340.27,205.79"/>
    </edge>
    <edge id=":27339851_0" function="internal">
        <lane id=":27339851_0_0" index="0" disallow="tram rail_urban rail rail_electric rail_fast ship container cable_car subway aircraft wheelchair scooter drone" speed="8.33" length="0.10" shape="424.07,217.22 424.07,217.22"/>
    </edge>
    <edge id=":3029666628_0" function="internal">
        <lane id=":3029666628_0_0" index="0" allow="pedestrian bicycle" speed="2.89" length="2.92" width="2.00" shape="582.67,274.28 583.30,274.92 583.45,275.46 583.10,275.90 582.26,276.24"/>
    </edge>
    <edge id=":3029785973_0" function="internal">
        <lane id=":3029785973_0_0" index="0" allow="bicycle" speed="5.56" length="3.85" width="2.00" shape="352.11,169.77 348.70,167.99"/>
    </edge>
    <edge id=":3029785973_1" function="internal">
        <lane id=":3029785973_1_0" index="0" allow="pedestrian bicycle" speed="2.89" length="2.92" width="2.00" shape="352.11,169.77 351.67,168.98 351.68,168.42 352.13,168.09 353.02,167.99"/>
    </edge>
    <edge id=":3029785973_2" function="internal">
        <lane id=":3029785973_2_0" index="0" allow="bicycle" speed="5.56" length="3.82" width="2.00" shape="349.64,166.22 353.02,167.99"/>
    </edge>
    <edge id=":3029785973_3" function="internal">
        <lane id=":3029785973_3_0" index="0" allow="bicycle" speed="2.89" length="2.92" width="2.00" shape="349.64,166.22 350.07,167.01 350.05,167.57 349.60,167.89 348.70,167.99"/>
    </edge>
    <edge id=":3029785973_4" function="internal">
        <lane id=":3029785973_4_0" index="0" allow="bicycle" speed="4.55" length="4.09" width="2.00" shape="349.80,171.44 350.13,170.36 350.06,169.42 349.58,168.63 348.70,167.99"/>
    </edge>
    <edge id=":3029785973_5" function="internal">
        <lane id=":3029785973_5_0" index="0" allow="bicycle" speed="4.84" length="5.08" width="2.00" shape="349.80,171.44 350.71,169.68 351.55,168.51 352.32,167.95 353.02,167.99"/>
    </edge>
    <edge id=":3029785974_0" function="internal">
        <lane id=":3029785974_0_0" index="0" allow="bicycle" speed="5.09" length="5.22" width="2.00" shape="345.02,172.44 346.63,173.05 347.93,173.16 348.92,172.77 349.61,171.87"/>
    </edge>
    <edge id=":3029785974_1" function="internal">
        <lane id=":3029785974_1_0" index="0" disallow="tram rail_urban rail rail_electric rail_fast ship container cable_car subway aircraft wheelchair scooter drone" speed="13.89" length="4.69" shape="344.76,172.98 348.97,175.04"/>
        <lane id=":3029785974_1_1" index="1" disallow="tram rail_urban rail rail_electric rail_fast ship container cable_car subway aircraft wheelchair scooter drone" speed="13.89" length="4.69" shape="343.35,175.85 347.57,177.92"/>
    </edge>
    <edge id=":3029785974_3" function="internal">
        <lane id=":3029785974_3_0" index="0" allow="bicycle" speed="5.56" length="10.44" width="2.00" shape="343.23,179.94 345.56,177.98 347.08,176.42 348.27,174.60 349.61,171.87"/>
    </edge>
    <edge id=":3029785974_4" function="internal">
        <lane id=":3029785974_4_0" index="0" allow="bicycle" speed="6.04" length="5.39" width="2.00" shape="343.23,179.94 344.89,178.65 346.21,177.79 347.19,177.37 347.83,177.38"/>
    </edge>
    <edge id=":3029785978_0" function="internal">
        <lane id=":3029785978_0_0" index="0" disallow="tram rail_urban rail rail_electric rail_fast ship container cable_car subway aircraft wheelchair scooter drone" speed="13.89" length="4.27" shape="339.84,184.36 339.25,183.24 338.80,182.50 338.30,181.79 337.54,180.78"/>
    </edge>
    <edge id=":3029785978_1" function="internal">
        <lane id=":3029785978_1_0" index="0" allow="bicycle" speed="4.63" length="3.37" width="2.00" shape="340.37,184.09 340.21,183.43 340.37,182.74 340.84,182.00 341.64,181.24"/>
    </edge>
    <edge id=":3029785978_2" function="internal">
        <lane id=":3029785978_2_0" index="0" allow="pedestrian bicycle" speed="4.56" length="4.61" width="2.00" shape="336.36,184.56 337.47,183.71 338.03,182.79 338.06,181.82 337.54,180.78"/>
    </edge>
    <edge id=":3029785978_3" function="internal">
        <lane id=":3029785978_3_0" index="0" allow="bicycle" speed="5.56" length="6.25" width="2.00" shape="336.36,184.56 337.98,183.65 339.10,183.04 340.17,182.37 341.64,181.24"/>
    </edge>
    <edge id=":3029785980_0" function="internal">
        <lane id=":3029785980_0_0" index="0" allow="pedestrian bicycle" speed="5.56" length="4.15" width="2.00" shape="334.78,192.35 334.48,191.16 334.23,190.35 333.91,189.57 333.37,188.47"/>
    </edge>
    <edge id=":3029785983_0" function="internal">
        <lane id=":3029785983_0_0" index="0" allow="pedestrian bicycle" speed="5.56" length="4.47" width="2.00" shape="328.01,207.02 329.23,206.50 330.02,206.04 330.69,205.41 331.52,204.39"/>
    </edge>
    <edge id=":3029785985_0" function="internal">
        <lane id=":3029785985_0_0" index="0" disallow="tram rail_urban rail rail_electric rail_fast ship container cable_car subway aircraft wheelchair scooter drone" speed="8.33" length="5.46" shape="332.10,213.88 333.56,213.18 334.53,212.64 335.42,211.97 336.64,210.91"/>
    </edge>
    <edge id=":3029785986_0" function="internal">
        <lane id=":3029785986_0_0" index="0" disallow="tram rail_urban rail rail_electric rail_fast ship container cable_car subway aircraft wheelchair scooter drone" speed="8.33" length="5.28" shape="341.19,222.87 335.95,222.19"/>
    </edge>
    <edge id=":3029785988_0" function="internal">
        <lane id=":3029785988_0_0" index="0" allow="pedestrian bicycle" speed="5.56" length="5.52" width="2.00" shape="339.96,233.49 334.49,232.83"/>
    </edge>
    <edge id=":3029785988_1" function="internal">
        <lane id=":3029785988_1_0" index="0" allow="pedestrian bicycle" speed="2.89" length="0.79" width="2.00" shape="339.96,233.49 339.37,232.97"/>
    </edge>
    <edge id=":3029785988_4" function="internal">
        <lane id=":3029785988_4_0" index="0" allow="pedestrian bicycle" speed="2.89" length="2.13" width="2.00" shape="339.37,232.97 339.28,232.90 339.10,232.37 339.41,231.91 340.22,231.51"/>
    </edge>
    <edge id=":3029785988_2" function="internal">
        <lane id=":3029785988_2_0" index="0" allow="pedestrian bicycle" speed="5.56" length="5.56" width="2.00" shape="334.70,230.85 340.22,231.51"/>
    </edge>
    <edge id=":3029785988_3" function="internal">
        <lane id=":3029785988_3_0" index="0" allow="pedestrian bicycle" speed="2.89" length="2.41" width="2.00" shape="334.70,230.85 335.39,231.42 335.59,231.95 335.29,232.42 334.94,232.60"/>
    </edge>
    <edge id=":3029785988_5" function="internal">
        <lane id=":3029785988_5_0" index="0" allow="pedestrian bicycle" speed="2.89" length="0.51" width="2.00" shape="334.94,232.60 334.49,232.83"/>
    </edge>
    <edge id=":3029785989_0" function="internal">
        <lane id=":3029785989_0_0" index="0" allow="pedestrian bicycle" speed="2.89" length="2.92" width="2.00" shape="333.35,235.30 333.54,236.18 333.38,236.72 332.85,236.90 331.97,236.75"/>
    </edge>
    <edge id=":315304258_0" function="internal">
        <lane id=":315304258_0_0" index="0" disallow="tram rail_urban rail rail_electric rail_fast ship container cable_car subway aircraft wheelchair scooter drone" speed="13.89" length="4.81" shape="341.74,188.98 341.28,187.64 340.94,186.72 340.56,185.82 339.93,184.54"/>
    </edge>
    <edge id=":315304259_0" function="internal">
        <lane id=":315304259_0_0" index="0" disallow="tram rail_urban rail rail_electric rail_fast ship container cable_car subway aircraft wheelchair scooter drone" speed="13.89" length="16.19" shape="333.99,176.34 331.32,173.42 328.42,170.41 325.33,167.65 322.08,165.48"/>
    </edge>
    <edge id=":315304259_1" function="internal">
        <lane id=":315304259_1_0" index="0" disallow="tram rail_urban rail rail_electric rail_fast ship container cable_car subway aircraft wheelchair scooter drone" speed="5.80" length="5.58" shape="333.99,176.34 331.00,172.67 330.76,171.86"/>
    </edge>
    <edge id=":315304259_5" function="internal">
        <lane id=":315304259_5_0" index="0" disallow="tram rail_urban rail rail_electric rail_fast ship container cable_car subway aircraft wheelchair scooter drone" speed="5.80" length="7.73" shape="330.76,171.86 330.46,170.82 332.38,170.81 336.75,172.63"/>
    </edge>
    <edge id=":315304259_2" function="internal">
        <lane id=":315304259_2_0" index="0" disallow="tram rail_urban rail rail_electric rail_fast ship container cable_car subway aircraft wheelchair scooter drone" speed="13.89" length="16.40" shape="323.59,162.65 338.16,169.75"/>
        <lane id=":315304259_2_1" index="1" disallow="tram rail_urban rail rail_electric rail_fast ship container cable_car subway aircraft wheelchair scooter drone" speed="13.89" length="16.40" shape="323.59,162.65 326.46,164.70 329.04,167.17 332.19,169.87 336.75,172.63"/>
    </edge>
    <edge id=":315304259_4" function="internal">
        <lane id=":315304259_4_0" index="0" disallow="tram rail_urban rail rail_electric rail_fast ship container cable_car subway aircraft wheelchair scooter drone" speed="3.65" length="1.44" shape="323.59,162.65 324.27,163.92"/>
    </edge>
    <edge id=":315304259_6" function="internal">
        <lane id=":315304259_6_0" index="0" disallow="tram rail_urban rail rail_electric rail_fast ship container cable_car subway aircraft wheelchair scooter drone" speed="3.65" length="3.23" shape="324.27,163.92 324.25,164.82 323.52,165.34 322.08,165.48"/>
    </edge>
    <edge id=":357495365_0" function="internal">
        <lane id=":357495365_0_0" index="0" allow="pedestrian bicycle" speed="4.21" length="3.50" width="2.00" shape="333.28,188.29 333.06,187.51 333.21,186.78 333.75,186.11 334.65,185.50"/>
    </edge>
    <edge id=":428878315_0" function="internal">
        <lane id=":428878315_0_0" index="0" allow="pedestrian bicycle" speed="2.89" length="2.92" width="2.00" shape="445.86,217.91 446.31,218.69 446.31,219.25 445.86,219.59 444.97,219.70"/>
    </edge>
    <edge id=":428915182_0" function="internal">
        <lane id=":428915182_0_0" index="0" allow="pedestrian bicycle" speed="5.56" length="11.70" width="2.00" shape="331.82,236.61 329.30,233.67 328.90,231.73 330.64,230.78 334.50,230.82"/>
    </edge>
    <edge id=":428915182_1" function="internal">
        <lane id=":428915182_1_0" index="0" allow="pedestrian bicycle" speed="2.89" length="2.92" width="2.00" shape="331.82,236.61 331.62,235.73 331.79,235.19 332.32,235.01 333.20,235.16"/>
    </edge>
    <edge id=":428915182_2" function="internal">
        <lane id=":428915182_2_0" index="0" allow="pedestrian bicycle" speed="3.81" length="4.75" width="2.00" shape="334.29,232.81 332.72,232.79 332.02,233.18 332.18,233.97 333.20,235.16"/>
    </edge>
    <edge id=":428915182_3" function="internal">
        <lane id=":428915182_3_0" index="0" allow="pedestrian bicycle" speed="2.89" length="2.92" width="2.00" shape="334.29,232.81 333.60,232.23 333.40,231.71 333.70,231.24 334.50,230.82"/>
    </edge>
    <edge id=":428915183_0" function="internal">
        <lane id=":428915183_0_0" index="0" allow="pedestrian bicycle" speed="5.56" length="0.29" width="2.00" shape="359.01,235.97 358.72,235.93"/>
    </edge>
    <edge id=":428915183_1" function="internal">
        <lane id=":428915183_1_0" index="0" allow="pedestrian bicycle" speed="5.56" length="0.25" width="2.00" shape="358.98,233.95 359.22,233.98"/>
    </edge>
    <edge id=":4380263140_0" function="internal">
        <lane id=":4380263140_0_0" index="0" allow="pedestrian bicycle" speed="5.56" length="5.80" width="2.00" shape="357.41,172.58 352.29,169.86"/>
    </edge>
    <edge id=":4380263140_1" function="internal">
        <lane id=":4380263140_1_0" index="0" allow="pedestrian bicycle" speed="5.56" length="0.72" width="2.00" shape="357.41,172.58 356.83,172.14"/>
    </edge>
    <edge id=":4380263140_2" function="internal">
        <lane id=":4380263140_2_0" index="0" allow="pedestrian bicycle" speed="2.89" length="0.79" width="2.00" shape="357.41,172.58 357.04,171.88"/>
    </edge>
    <edge id=":4380263140_9" function="internal">
        <lane id=":4380263140_9_0" index="0" allow="pedestrian bicycle" speed="5.56" length="6.52" width="2.00" shape="356.83,172.14 355.85,171.41 355.02,170.00 354.91,168.35 355.53,166.44"/>
    </edge>
    <edge id=":4380263140_10" function="internal">
        <lane id=":4380263140_10_0" index="0" allow="pedestrian bicycle" speed="2.89" length="2.13" width="2.00" shape="357.04,171.88 356.99,171.78 357.01,171.22 357.47,170.90 358.36,170.82"/>
    </edge>
    <edge id=":4380263140_3" function="internal">
        <lane id=":4380263140_3_0" index="0" allow="pedestrian bicycle" speed="4.55" length="4.13" width="2.00" shape="357.33,167.31 356.97,168.41 357.03,169.36 357.49,170.16 358.36,170.82"/>
    </edge>
    <edge id=":4380263140_4" function="internal">
        <lane id=":4380263140_4_0" index="0" allow="pedestrian bicycle" speed="5.41" length="6.44" width="2.00" shape="357.33,167.31 356.27,169.01 355.08,170.01 353.75,170.29 352.29,169.86"/>
    </edge>
    <edge id=":4380263140_5" function="internal">
        <lane id=":4380263140_5_0" index="0" allow="pedestrian bicycle" speed="2.89" length="2.92" width="2.00" shape="357.33,167.31 356.56,167.77 356.00,167.78 355.66,167.33 355.53,166.44"/>
    </edge>
    <edge id=":4380263140_6" function="internal">
        <lane id=":4380263140_6_0" index="0" allow="pedestrian bicycle" speed="3.98" length="3.19" width="2.00" shape="353.20,168.08 353.81,168.22 354.40,167.99 354.97,167.40 355.53,166.44"/>
    </edge>
    <edge id=":4380263140_7" function="internal">
        <lane id=":4380263140_7_0" index="0" allow="pedestrian bicycle" speed="5.56" length="5.84" width="2.00" shape="353.20,168.08 358.36,170.82"/>
    </edge>
    <edge id=":4380263140_8" function="internal">
        <lane id=":4380263140_8_0" index="0" allow="pedestrian bicycle" speed="2.89" length="2.42" width="2.00" shape="353.20,168.08 353.64,168.87 353.63,169.43 353.18,169.76 352.79,169.81"/>
    </edge>
    <edge id=":4380263140_11" function="internal">
        <lane id=":4380263140_11_0" index="0" allow="pedestrian bicycle" speed="2.89" length="0.50" width="2.00" shape="352.79,169.81 352.29,169.86"/>
    </edge>
    <edge id=":4380268147_0" function="internal">
        <lane id=":4380268147_0_0" index="0" allow="pedestrian bicycle" speed="5.56" length="4.59" width="2.00" shape="325.34,210.77 325.58,209.50 326.06,208.48 326.77,207.69 327.72,207.14"/>
    </edge>
    <edge id=":4450722745_0" function="internal">
        <lane id=":4450722745_0_0" index="0" disallow="tram rail_urban rail rail_electric rail_fast ship container cable_car subway aircraft wheelchair scooter drone" speed="3.65" length="4.67" shape="238.08,120.70 237.40,119.43 237.43,118.53 238.15,118.02 239.59,117.87"/>
    </edge>
    <edge id=":5314726321_0" function="internal">
        <lane id=":5314726321_0_0" index="0" disallow="tram rail_urban rail rail_electric rail_fast ship container cable_car subway aircraft wheelchair scooter drone" speed="8.33" length="0.45" shape="341.08,211.05 340.94,211.06"/>
        <lane id=":5314726321_0_1" index="1" disallow="tram rail_urban rail rail_electric rail_fast ship container cable_car subway aircraft wheelchair scooter drone" speed="8.33" length="0.45" shape="344.03,209.81 344.10,210.56"/>
    </edge>
    <edge id=":5512392415_0" function="internal">
        <lane id=":5512392415_0_0" index="0" allow="bicycle" speed="5.56" length="12.64" width="2.00" shape="348.55,167.91 337.40,161.94"/>
    </edge>
    <edge id=":5512392415_1" function="internal">
        <lane id=":5512392415_1_0" index="0" allow="bicycle" speed="5.56" length="11.30" width="2.00" shape="348.55,167.91 346.00,166.14 344.44,164.25 343.07,162.11 341.11,159.58"/>
    </edge>
    <edge id=":5512392415_2" function="internal">
        <lane id=":5512392415_2_0" index="0" allow="bicycle" speed="2.89" length="2.92" width="2.00" shape="348.55,167.91 348.13,167.11 348.14,166.56 348.59,166.23 349.49,166.14"/>
    </edge>
    <edge id=":5512392415_3" function="internal">
        <lane id=":5512392415_3_0" index="0" allow="bicycle" speed="5.56" length="7.29" width="2.00" shape="346.62,159.51 347.50,162.21 348.27,164.21 348.93,165.53 349.49,166.14"/>
    </edge>
    <edge id=":5512392415_4" function="internal">
        <lane id=":5512392415_4_0" index="0" allow="bicycle" speed="5.56" length="12.52" width="2.00" shape="345.47,159.86 345.85,162.87 344.63,164.22 341.81,163.91 337.40,161.94"/>
    </edge>
    <edge id=":5512392415_5" function="internal">
        <lane id=":5512392415_5_0" index="0" allow="pedestrian motorcycle moped bicycle" speed="4.39" length="6.61" shape="346.04,159.68 344.73,161.24 343.54,161.68 342.48,160.99 341.55,159.18"/>
    </edge>
    <edge id=":5512392415_6" function="internal">
        <lane id=":5512392415_6_0" index="0" allow="bicycle" speed="4.20" length="6.88" width="2.00" shape="338.35,160.18 340.96,161.45 342.28,161.78 342.33,161.15 341.11,159.58"/>
    </edge>
    <edge id=":5512392415_7" function="internal">
        <lane id=":5512392415_7_0" index="0" allow="bicycle" speed="5.56" length="12.63" width="2.00" shape="338.35,160.18 349.49,166.14"/>
    </edge>
    <edge id=":5512392415_8" function="internal">
        <lane id=":5512392415_8_0" index="0" allow="bicycle" speed="2.89" length="2.92" width="2.00" shape="338.35,160.18 338.77,160.98 338.76,161.54 338.30,161.86 337.40,161.94"/>
    </edge>
    <edge id=":5512392721_0" function="internal">
        <lane id=":5512392721_0_0" index="0" allow="pedestrian motorcycle moped bicycle" speed="3.65" length="4.67" shape="311.82,139.84 311.10,138.58 311.10,137.69 311.82,137.15 313.25,136.97"/>
    </edge>
    <edge id=":5514389541_0" function="internal">
        <lane id=":5514389541_0_0" index="0" allow="bicycle" speed="2.89" length="2.92" width="2.00" shape="46.28,0.76 46.04,-0.11 46.17,-0.65 46.69,-0.87 47.58,-0.76"/>
    </edge>
    <edge id=":5565861664_0" function="internal">
        <lane id=":5565861664_0_0" index="0" disallow="tram rail_urban rail rail_electric rail_fast ship container cable_car subway aircraft wheelchair scooter drone" speed="8.33" length="0.30" shape="379.72,228.65 379.41,228.62"/>
        <lane id=":5565861664_0_1" index="1" disallow="tram rail_urban rail rail_electric rail_fast ship container cable_car subway aircraft wheelchair scooter drone" speed="8.33" length="0.30" shape="380.06,225.47 379.78,225.44"/>
    </edge>
    <edge id=":582646579_0" function="internal">
        <lane id=":582646579_0_0" index="0" disallow="tram rail_urban rail rail_electric rail_fast ship container cable_car subway aircraft wheelchair scooter drone" speed="8.33" length="0.50" shape="378.39,218.68 378.26,218.86 378.18,218.98 378.08,219.09 377.94,219.25"/>
        <lane id=":582646579_0_1" index="1" disallow="tram rail_urban rail rail_electric rail_fast ship container cable_car subway aircraft wheelchair scooter drone" speed="8.33" length="0.50" shape="375.72,216.90 375.92,216.71"/>
    </edge>