<?xml version="1.0" encoding="UTF-8"?>

<!-- generated on 2024-09-03 01:37:13 by Eclipse SUMO netconvert Version 1.20.0
<configuration xmlns:xsi="http://www.w3.org/2001/XMLSchema-instance" xsi:noNamespaceSchemaLocation="http://sumo.dlr.de/xsd/netconvertConfiguration.xsd">

    <input>
        <osm-files value="train_files/intersection/easy/osm_files/map(99).osm"/>
    </input>

    <output>
        <output-file value="train_files/intersection/easy/outputs/map(99)_dict/map(99)/map(99).net.xml"/>
    </output>

    <projection>
        <proj.utm value="true"/>
    </projection>

    <building_defaults>
        <default.junctions.keep-clear value="false"/>
    </building_defaults>

</configuration>
-->

<net version="1.20" junctionCornerDetail="5" limitTurnSpeed="5.50" xmlns:xsi="http://www.w3.org/2001/XMLSchema-instance" xsi:noNamespaceSchemaLocation="http://sumo.dlr.de/xsd/net_file.xsd">

    <location netOffset="-686065.85,-5952597.07" convBoundary="0.00,0.00,1241.29,521.33" origBoundary="23.817983,53.688671,23.836841,53.693450" projParameter="+proj=utm +zone=34 +ellps=WGS84 +datum=WGS84 +units=m +no_defs"/>

    <type id="highway.footway" priority="1" numLanes="1" speed="2.78" allow="pedestrian" oneway="1" width="2.00"/>
    <type id="highway.secondary" priority="11" numLanes="1" speed="27.78" disallow="tram rail_urban rail rail_electric rail_fast ship container cable_car subway aircraft wheelchair scooter drone" oneway="0"/>
    <type id="highway.secondary_link" priority="6" numLanes="1" speed="22.22" disallow="tram rail_urban rail rail_electric rail_fast ship container cable_car subway aircraft wheelchair scooter drone" oneway="0"/>
    <type id="highway.service" priority="1" numLanes="1" speed="5.56" allow="pedestrian delivery bicycle" oneway="0"/>

    <edge id=":1059134133_0" function="internal">
        <lane id=":1059134133_0_0" index="0" disallow="tram rail_urban rail rail_electric rail_fast ship container cable_car subway aircraft wheelchair scooter drone" speed="16.67" length="9.67" shape="474.81,175.10 465.13,175.56"/>
        <lane id=":1059134133_0_1" index="1" disallow="tram rail_urban rail rail_electric rail_fast ship container cable_car subway aircraft wheelchair scooter drone" speed="16.67" length="9.67" shape="474.64,171.91 465.00,172.36"/>
    </edge>
    <edge id=":1059134133_2" function="internal">
        <lane id=":1059134133_2_0" index="0" disallow="tram rail_urban rail rail_electric rail_fast ship container cable_car subway aircraft wheelchair scooter drone" speed="16.67" length="9.56" shape="464.61,162.77 474.12,162.32"/>
        <lane id=":1059134133_2_1" index="1" disallow="tram rail_urban rail rail_electric rail_fast ship container cable_car subway aircraft wheelchair scooter drone" speed="16.67" length="9.56" shape="464.74,165.97 474.29,165.51"/>
        <lane id=":1059134133_2_2" index="2" disallow="tram rail_urban rail rail_electric rail_fast ship container cable_car subway aircraft wheelchair scooter drone" speed="16.67" length="9.56" shape="464.87,169.16 474.46,168.71"/>
    </edge>
    <edge id=":1059134136_0" function="internal">
        <lane id=":1059134136_0_0" index="0" disallow="tram rail_urban rail rail_electric rail_fast ship container cable_car subway aircraft wheelchair scooter drone" speed="16.67" length="6.97" shape="519.50,178.87 512.68,178.29"/>
        <lane id=":1059134136_0_1" index="1" disallow="tram rail_urban rail rail_electric rail_fast ship container cable_car subway aircraft wheelchair scooter drone" speed="16.67" length="6.97" shape="519.83,175.69 512.89,175.09"/>
        <lane id=":1059134136_0_2" index="2" disallow="tram rail_urban rail rail_electric rail_fast ship container cable_car subway aircraft wheelchair scooter drone" speed="16.67" length="6.97" shape="520.17,172.51 513.10,171.90"/>
    </edge>
    <edge id=":1059134136_3" function="internal">
        <lane id=":1059134136_3_0" index="0" disallow="tram rail_urban rail rail_electric rail_fast ship container cable_car subway aircraft wheelchair scooter drone" speed="16.67" length="7.22" shape="513.31,168.71 520.50,169.33"/>
    </edge>
    <edge id=":2362755806_0" function="internal">
        <lane id=":2362755806_0_0" index="0" disallow="tram rail_urban rail rail_electric rail_fast ship container cable_car subway aircraft wheelchair scooter drone" speed="16.67" length="5.89" shape="470.53,192.51 471.35,190.79 471.96,189.64 472.62,188.52 473.62,186.89"/>
        <lane id=":2362755806_0_1" index="1" disallow="tram rail_urban rail rail_electric rail_fast ship container cable_car subway aircraft wheelchair scooter drone" speed="16.67" length="5.89" shape="473.42,193.88 474.20,192.26 474.77,191.17 475.40,190.10 476.34,188.57"/>
        <lane id=":2362755806_0_2" index="2" disallow="tram rail_urban rail rail_electric rail_fast ship container cable_car subway aircraft wheelchair scooter drone" speed="16.67" length="5.89" shape="476.31,195.25 477.05,193.72 477.59,192.69 478.18,191.69 479.07,190.25"/>
        <lane id=":2362755806_0_3" index="3" disallow="tram rail_urban rail rail_electric rail_fast ship container cable_car subway aircraft wheelchair scooter drone" speed="16.67" length="5.89" shape="479.20,196.62 479.89,195.18 480.40,194.22 480.96,193.28 481.79,191.93"/>
    </edge>
    <edge id=":2362755810_0" function="internal">
        <lane id=":2362755810_0_0" index="0" disallow="tram rail_urban rail rail_electric rail_fast ship container cable_car subway aircraft wheelchair scooter drone" speed="16.67" length="5.45" shape="494.44,197.79 492.00,202.53"/>
        <lane id=":2362755810_0_1" index="1" disallow="tram rail_urban rail rail_electric rail_fast ship container cable_car subway aircraft wheelchair scooter drone" speed="16.67" length="5.45" shape="491.62,196.28 489.13,201.12"/>
        <lane id=":2362755810_0_2" index="2" disallow="tram rail_urban rail rail_electric rail_fast ship container cable_car subway aircraft wheelchair scooter drone" speed="16.67" length="5.45" shape="488.79,194.77 486.26,199.71"/>
    </edge>
    <edge id=":2371091433_0" function="internal">
        <lane id=":2371091433_0_0" index="0" disallow="tram rail_urban rail rail_electric rail_fast ship container cable_car subway aircraft wheelchair scooter drone" speed="10.90" length="7.31" shape="529.35,133.37 528.43,135.31 528.00,136.75 527.97,138.25 528.23,140.39"/>
    </edge>
    <edge id=":2371091433_1" function="internal">
        <lane id=":2371091433_1_0" index="0" disallow="tram rail_urban rail rail_electric rail_fast ship container cable_car subway aircraft wheelchair scooter drone" speed="16.67" length="7.78" shape="526.49,131.92 525.69,134.06 525.51,135.65 525.32,137.25 524.52,139.39"/>
        <lane id=":2371091433_1_1" index="1" disallow="tram rail_urban rail rail_electric rail_fast ship container cable_car subway aircraft wheelchair scooter drone" speed="16.67" length="7.78" shape="523.64,130.48 522.84,132.61 522.65,134.21 522.46,135.81 521.66,137.94"/>
        <lane id=":2371091433_1_2" index="2" disallow="tram rail_urban rail rail_electric rail_fast ship container cable_car subway aircraft wheelchair scooter drone" speed="16.67" length="7.78" shape="520.78,129.03 519.98,131.17 519.79,132.76 519.61,134.36 518.81,136.50"/>
    </edge>
    <edge id=":2371091438_0" function="internal">
        <lane id=":2371091438_0_0" index="0" disallow="tram rail_urban rail rail_electric rail_fast ship container cable_car subway aircraft wheelchair scooter drone" speed="16.67" length="5.20" shape="498.04,147.53 500.37,143.00"/>
        <lane id=":2371091438_0_1" index="1" disallow="tram rail_urban rail rail_electric rail_fast ship container cable_car subway aircraft wheelchair scooter drone" speed="16.67" length="5.20" shape="500.87,149.04 503.24,144.41"/>
        <lane id=":2371091438_0_2" index="2" disallow="tram rail_urban rail rail_electric rail_fast ship container cable_car subway aircraft wheelchair scooter drone" speed="16.67" length="5.20" shape="503.69,150.54 506.11,145.82"/>
    </edge>
    <edge id=":2371091440_0" function="internal">
        <lane id=":2371091440_0_0" index="0" disallow="tram rail_urban rail rail_electric rail_fast ship container cable_car subway aircraft wheelchair scooter drone" speed="16.67" length="5.10" shape="518.29,151.71 516.02,156.25"/>
        <lane id=":2371091440_0_1" index="1" disallow="tram rail_urban rail rail_electric rail_fast ship container cable_car subway aircraft wheelchair scooter drone" speed="16.67" length="5.10" shape="515.43,150.27 513.15,154.83"/>
        <lane id=":2371091440_0_2" index="2" disallow="tram rail_urban rail rail_electric rail_fast ship container cable_car subway aircraft wheelchair scooter drone" speed="16.67" length="5.10" shape="512.58,148.83 510.28,153.42"/>
    </edge>
    <edge id=":2371091441_0" function="internal">
        <lane id=":2371091441_0_0" index="0" disallow="tram rail_urban rail rail_electric rail_fast ship container cable_car subway aircraft wheelchair scooter drone" speed="16.67" length="5.39" shape="530.41,150.68 530.95,152.18 531.38,153.19 531.92,154.15 532.79,155.49"/>
    </edge>
    <edge id=":2371091455_0" function="internal">
        <lane id=":2371091455_0_0" index="0" disallow="tram rail_urban rail rail_electric rail_fast ship container cable_car subway aircraft wheelchair scooter drone" speed="16.67" length="8.97" shape="551.00,178.89 548.38,179.11 546.65,180.06 544.91,181.01 542.29,181.26"/>
        <lane id=":2371091455_0_1" index="1" disallow="tram rail_urban rail rail_electric rail_fast ship container cable_car subway aircraft wheelchair scooter drone" speed="16.67" length="8.97" shape="551.36,175.71 548.73,175.93 546.99,176.88 545.25,177.83 542.62,178.07"/>
        <lane id=":2371091455_0_2" index="2" disallow="tram rail_urban rail rail_electric rail_fast ship container cable_car subway aircraft wheelchair scooter drone" speed="16.67" length="8.97" shape="551.36,175.71 542.95,174.89"/>
    </edge>
    <edge id=":2371091455_3" function="internal">
        <lane id=":2371091455_3_0" index="0" disallow="tram rail_urban rail rail_electric rail_fast ship container cable_car subway aircraft wheelchair scooter drone" speed="3.65" length="1.44" shape="551.36,175.71 550.26,174.78"/>
    </edge>
    <edge id=":2371091455_7" function="internal">
        <lane id=":2371091455_7_0" index="0" disallow="tram rail_urban rail rail_electric rail_fast ship container cable_car subway aircraft wheelchair scooter drone" speed="3.65" length="3.23" shape="550.26,174.78 549.96,173.94 550.44,173.19 551.73,172.53"/>
    </edge>
    <edge id=":2371091455_4" function="internal">
        <lane id=":2371091455_4_0" index="0" disallow="tram rail_urban rail rail_electric rail_fast ship container cable_car subway aircraft wheelchair scooter drone" speed="14.46" length="8.61" shape="544.17,166.39 546.28,167.80 547.86,168.59 549.57,169.03 552.09,169.35"/>
    </edge>
    <edge id=":2371091455_5" function="internal">
        <lane id=":2371091455_5_0" index="0" disallow="tram rail_urban rail rail_electric rail_fast ship container cable_car subway aircraft wheelchair scooter drone" speed="16.67" length="8.48" shape="543.29,171.71 551.73,172.53"/>
    </edge>
    <edge id=":2371091455_6" function="internal">
        <lane id=":2371091455_6_0" index="0" disallow="tram rail_urban rail rail_electric rail_fast ship container cable_car subway aircraft wheelchair scooter drone" speed="3.65" length="1.44" shape="543.29,171.71 544.40,172.63"/>
    </edge>
    <edge id=":2371091455_8" function="internal">
        <lane id=":2371091455_8_0" index="0" disallow="tram rail_urban rail rail_electric rail_fast ship container cable_car subway aircraft wheelchair scooter drone" speed="3.65" length="3.23" shape="544.40,172.63 544.71,173.47 544.23,174.22 542.95,174.89"/>
    </edge>
    <edge id=":2616327441_0" function="internal">
        <lane id=":2616327441_0_0" index="0" disallow="tram rail_urban rail rail_electric rail_fast ship container cable_car subway aircraft wheelchair scooter drone" speed="16.67" length="0.24" shape="863.78,219.73 863.57,219.69"/>
        <lane id=":2616327441_0_1" index="1" disallow="tram rail_urban rail rail_electric rail_fast ship container cable_car subway aircraft wheelchair scooter drone" speed="16.67" length="0.24" shape="864.27,216.56 864.01,216.52"/>
    </edge>
    <edge id=":2616327441_2" function="internal">
        <lane id=":2616327441_2_0" index="0" disallow="tram rail_urban rail rail_electric rail_fast ship container cable_car subway aircraft wheelchair scooter drone" speed="16.67" length="0.34" shape="864.88,210.18 865.24,210.24"/>
        <lane id=":2616327441_2_1" index="1" disallow="tram rail_urban rail rail_electric rail_fast ship container cable_car subway aircraft wheelchair scooter drone" speed="16.67" length="0.34" shape="864.44,213.35 864.75,213.40"/>
    </edge>
    <edge id=":320683992_0" function="internal">
        <lane id=":320683992_0_0" index="0" disallow="tram rail_urban rail rail_electric rail_fast ship container cable_car subway aircraft wheelchair scooter drone" speed="16.67" length="22.78" shape="497.66,174.44 475.01,175.09"/>
        <lane id=":320683992_0_1" index="1" disallow="tram rail_urban rail rail_electric rail_fast ship container cable_car subway aircraft wheelchair scooter drone" speed="16.67" length="22.78" shape="497.72,171.24 474.84,171.89"/>
    </edge>
    <edge id=":320683992_2" function="internal">
        <lane id=":320683992_2_0" index="0" disallow="tram rail_urban rail rail_electric rail_fast ship container cable_car subway aircraft wheelchair scooter drone" speed="6.94" length="1.74" shape="497.72,171.24 496.14,170.53"/>
    </edge>
    <edge id=":320683992_3" function="internal">
        <lane id=":320683992_3_0" index="0" disallow="tram rail_urban rail rail_electric rail_fast ship container cable_car subway aircraft wheelchair scooter drone" speed="3.65" length="1.44" shape="497.72,171.24 496.54,170.42"/>
    </edge>
    <edge id=":320683992_13" function="internal">
        <lane id=":320683992_13_0" index="0" disallow="tram rail_urban rail rail_electric rail_fast ship container cable_car subway aircraft wheelchair scooter drone" speed="6.94" length="12.42" shape="496.14,170.53 495.94,170.44 495.58,168.12 496.67,164.31 499.19,158.98"/>
    </edge>
    <edge id=":320683992_14" function="internal">
        <lane id=":320683992_14_0" index="0" disallow="tram rail_urban rail rail_electric rail_fast ship container cable_car subway aircraft wheelchair scooter drone" speed="3.65" length="3.23" shape="496.54,170.42 496.16,169.61 496.58,168.82 497.79,168.04"/>
    </edge>
    <edge id=":320683992_4" function="internal">
        <lane id=":320683992_4_0" index="0" disallow="tram rail_urban rail rail_electric rail_fast ship container cable_car subway aircraft wheelchair scooter drone" speed="12.43" length="20.88" shape="474.32,162.31 481.64,161.58 487.28,160.28 491.25,158.41 493.54,155.97"/>
    </edge>
    <edge id=":320683992_5" function="internal">
        <lane id=":320683992_5_0" index="0" disallow="tram rail_urban rail rail_electric rail_fast ship container cable_car subway aircraft wheelchair scooter drone" speed="16.67" length="23.62" shape="474.32,162.31 481.58,162.41 486.77,163.26 491.63,164.27 497.86,164.85"/>
        <lane id=":320683992_5_1" index="1" disallow="tram rail_urban rail rail_electric rail_fast ship container cable_car subway aircraft wheelchair scooter drone" speed="16.67" length="23.62" shape="474.49,165.50 481.66,165.60 486.78,166.46 491.58,167.47 497.79,168.04"/>
    </edge>
    <edge id=":320683992_7" function="internal">
        <lane id=":320683992_7_0" index="0" disallow="tram rail_urban rail rail_electric rail_fast ship container cable_car subway aircraft wheelchair scooter drone" speed="3.65" length="1.44" shape="474.66,168.70 475.90,169.43"/>
    </edge>
    <edge id=":320683992_15" function="internal">
        <lane id=":320683992_15_0" index="0" disallow="tram rail_urban rail rail_electric rail_fast ship container cable_car subway aircraft wheelchair scooter drone" speed="3.65" length="3.23" shape="475.90,169.43 476.35,170.21 475.99,171.03 474.84,171.89"/>
    </edge>
    <edge id=":320683992_8" function="internal">
        <lane id=":320683992_8_0" index="0" disallow="tram rail_urban rail rail_electric rail_fast ship container cable_car subway aircraft wheelchair scooter drone" speed="5.43" length="8.72" shape="477.38,180.77 478.62,178.16 478.64,176.35 477.43,175.32 475.01,175.09"/>
    </edge>
    <edge id=":320683992_9" function="internal">
        <lane id=":320683992_9_0" index="0" disallow="tram rail_urban rail rail_electric rail_fast ship container cable_car subway aircraft wheelchair scooter drone" speed="16.67" length="29.80" shape="477.38,180.77 493.54,155.97"/>
        <lane id=":320683992_9_1" index="1" disallow="tram rail_urban rail rail_electric rail_fast ship container cable_car subway aircraft wheelchair scooter drone" speed="16.67" length="29.80" shape="480.11,182.45 496.37,157.48"/>
        <lane id=":320683992_9_2" index="2" disallow="tram rail_urban rail rail_electric rail_fast ship container cable_car subway aircraft wheelchair scooter drone" speed="16.67" length="29.80" shape="482.83,184.12 499.19,158.98"/>
    </edge>
    <edge id=":320683992_12" function="internal">
        <lane id=":320683992_12_0" index="0" disallow="tram rail_urban rail rail_electric rail_fast ship container cable_car subway aircraft wheelchair scooter drone" speed="12.53" length="21.62" shape="485.56,185.80 490.43,178.02 494.09,172.47 496.54,169.14 497.79,168.04"/>
    </edge>
    <edge id=":320685652_0" function="internal">
        <lane id=":320685652_0_0" index="0" disallow="tram rail_urban rail rail_electric rail_fast ship container cable_car subway aircraft wheelchair scooter drone" speed="3.65" length="4.67" shape="961.26,227.30 962.34,228.26 962.62,229.11 962.11,229.84 960.81,230.47"/>
    </edge>
    <edge id=":320746991_0" function="internal">
        <lane id=":320746991_0_0" index="0" disallow="tram rail_urban rail rail_electric rail_fast ship container cable_car subway aircraft wheelchair scooter drone" speed="16.67" length="0.33" shape="875.03,221.45 874.69,221.40"/>
        <lane id=":320746991_0_1" index="1" disallow="tram rail_urban rail rail_electric rail_fast ship container cable_car subway aircraft wheelchair scooter drone" speed="16.67" length="0.33" shape="875.49,218.28 875.18,218.23"/>
    </edge>
    <edge id=":320746991_2" function="internal">
        <lane id=":320746991_2_0" index="0" disallow="tram rail_urban rail rail_electric rail_fast ship container cable_car subway aircraft wheelchair scooter drone" speed="16.67" length="0.26" shape="876.15,211.91 876.39,211.94"/>
        <lane id=":320746991_2_1" index="1" disallow="tram rail_urban rail rail_electric rail_fast ship container cable_car subway aircraft wheelchair scooter drone" speed="16.67" length="0.26" shape="875.66,215.07 875.94,215.11"/>
    </edge>
    <edge id=":320748155_0" function="internal">
        <lane id=":320748155_0_0" index="0" disallow="tram rail_urban rail rail_electric rail_fast ship container cable_car subway aircraft wheelchair scooter drone" speed="8.96" length="12.19" shape="512.48,178.27 509.08,178.41 506.22,179.30 503.92,180.94 502.17,183.33"/>
    </edge>
    <edge id=":320748155_1" function="internal">
        <lane id=":320748155_1_0" index="0" disallow="tram rail_urban rail rail_electric rail_fast ship container cable_car subway aircraft wheelchair scooter drone" speed="16.67" length="15.29" shape="512.48,178.27 508.07,177.49 505.17,176.24 502.27,175.04 497.86,174.45"/>
        <lane id=":320748155_1_1" index="1" disallow="tram rail_urban rail rail_electric rail_fast ship container cable_car subway aircraft wheelchair scooter drone" speed="16.67" length="15.29" shape="512.69,175.08 508.24,174.29 505.31,173.04 502.38,171.85 497.92,171.25"/>
    </edge>
    <edge id=":320748155_3" function="internal">
        <lane id=":320748155_3_0" index="0" disallow="tram rail_urban rail rail_electric rail_fast ship container cable_car subway aircraft wheelchair scooter drone" speed="3.65" length="1.44" shape="512.90,171.89 511.75,171.01"/>
    </edge>
    <edge id=":320748155_11" function="internal">
        <lane id=":320748155_11_0" index="0" disallow="tram rail_urban rail rail_electric rail_fast ship container cable_car subway aircraft wheelchair scooter drone" speed="3.65" length="3.23" shape="511.75,171.01 511.40,170.19 511.86,169.41 513.11,168.69"/>
    </edge>
    <edge id=":320748155_4" function="internal">
        <lane id=":320748155_4_0" index="0" disallow="tram rail_urban rail rail_electric rail_fast ship container cable_car subway aircraft wheelchair scooter drone" speed="16.67" length="23.06" shape="512.81,162.75 502.17,183.33"/>
        <lane id=":320748155_4_1" index="1" disallow="tram rail_urban rail rail_electric rail_fast ship container cable_car subway aircraft wheelchair scooter drone" speed="16.67" length="23.06" shape="509.94,161.34 499.34,181.82"/>
        <lane id=":320748155_4_2" index="2" disallow="tram rail_urban rail rail_electric rail_fast ship container cable_car subway aircraft wheelchair scooter drone" speed="16.67" length="23.06" shape="507.07,159.92 496.52,180.31"/>
    </edge>
    <edge id=":320748155_7" function="internal">
        <lane id=":320748155_7_0" index="0" disallow="tram rail_urban rail rail_electric rail_fast ship container cable_car subway aircraft wheelchair scooter drone" speed="9.94" length="14.98" shape="507.07,159.92 504.39,164.91 501.98,168.45 499.82,170.57 497.92,171.25"/>
    </edge>
    <edge id=":320748155_8" function="internal">
        <lane id=":320748155_8_0" index="0" disallow="tram rail_urban rail rail_electric rail_fast ship container cable_car subway aircraft wheelchair scooter drone" speed="16.67" length="15.61" shape="498.06,164.85 502.99,165.47 506.62,166.71 509.74,167.98 513.11,168.69"/>
    </edge>
    <edge id=":320748155_9" function="internal">
        <lane id=":320748155_9_0" index="0" disallow="tram rail_urban rail rail_electric rail_fast ship container cable_car subway aircraft wheelchair scooter drone" speed="6.94" length="1.79" shape="497.99,168.05 499.62,168.78"/>
    </edge>
    <edge id=":320748155_10" function="internal">
        <lane id=":320748155_10_0" index="0" disallow="tram rail_urban rail rail_electric rail_fast ship container cable_car subway aircraft wheelchair scooter drone" speed="3.65" length="1.44" shape="497.99,168.05 499.18,168.87"/>
    </edge>
    <edge id=":320748155_12" function="internal">
        <lane id=":320748155_12_0" index="0" disallow="tram rail_urban rail rail_electric rail_fast ship container cable_car subway aircraft wheelchair scooter drone" speed="6.94" length="12.39" shape="499.62,168.78 499.79,168.86 500.14,171.17 499.05,174.99 496.52,180.31"/>
    </edge>
    <edge id=":320748155_13" function="internal">
        <lane id=":320748155_13_0" index="0" disallow="tram rail_urban rail rail_electric rail_fast ship container cable_car subway aircraft wheelchair scooter drone" speed="3.65" length="3.23" shape="499.18,168.87 499.56,169.68 499.14,170.47 497.92,171.25"/>
    </edge>
    <edge id=":6448834731_0" function="internal">
        <lane id=":6448834731_0_0" index="0" allow="pedestrian delivery bicycle" speed="5.13" length="5.11" shape="489.83,214.28 488.46,213.86 487.29,213.95 486.32,214.56 485.54,215.67"/>
    </edge>
    <edge id=":6448834731_1" function="internal">
        <lane id=":6448834731_1_0" index="0" allow="pedestrian delivery bicycle" speed="3.65" length="4.67" shape="489.83,214.28 489.07,213.05 489.04,212.15 489.74,211.59 491.16,211.37"/>
    </edge>
    <edge id=":6448834731_2" function="internal">
        <lane id=":6448834731_2_0" index="0" allow="pedestrian delivery bicycle" speed="5.01" length="5.03" shape="489.69,207.24 489.26,208.55 489.36,209.68 490.00,210.62 491.16,211.37"/>
    </edge>
    <edge id=":6448834731_3" function="internal">
        <lane id=":6448834731_3_0" index="0" disallow="tram rail_urban rail rail_electric rail_fast ship container cable_car subway aircraft wheelchair scooter drone" speed="16.67" length="9.40" shape="489.69,207.24 485.54,215.67"/>
        <lane id=":6448834731_3_1" index="1" disallow="tram rail_urban rail rail_electric rail_fast ship container cable_car subway aircraft wheelchair scooter drone" speed="16.67" length="9.40" shape="486.82,205.82 482.67,214.26"/>
        <lane id=":6448834731_3_2" index="2" disallow="tram rail_urban rail rail_electric rail_fast ship container cable_car subway aircraft wheelchair scooter drone" speed="16.67" length="9.40" shape="483.94,204.41 479.80,212.85"/>
    </edge>
    <edge id=":6448834733_0" function="internal">
        <lane id=":6448834733_0_0" index="0" allow="pedestrian delivery bicycle" speed="3.65" length="4.67" shape="527.15,244.75 526.22,245.85 525.38,246.16 524.63,245.67 523.97,244.39"/>
    </edge>
    <edge id=":6448834734_0" function="internal">
        <lane id=":6448834734_0_0" index="0" allow="pedestrian delivery bicycle" speed="5.56" length="5.50" shape="497.08,217.60 492.08,215.31"/>
    </edge>
    <edge id=":6448834734_1" function="internal">
        <lane id=":6448834734_1_0" index="0" allow="pedestrian delivery bicycle" speed="3.65" length="1.44" shape="497.08,217.60 496.32,216.37"/>
    </edge>
    <edge id=":6448834734_4" function="internal">
        <lane id=":6448834734_4_0" index="0" allow="pedestrian delivery bicycle" speed="3.65" length="3.23" shape="496.32,216.37 496.29,215.48 496.99,214.92 498.41,214.69"/>
    </edge>
    <edge id=":6448834734_2" function="internal">
        <lane id=":6448834734_2_0" index="0" allow="pedestrian delivery bicycle" speed="5.56" length="5.50" shape="493.42,212.40 498.41,214.69"/>
    </edge>
    <edge id=":6448834734_3" function="internal">
        <lane id=":6448834734_3_0" index="0" allow="pedestrian delivery bicycle" speed="3.65" length="1.44" shape="493.42,212.40 494.17,213.63"/>
    </edge>
    <edge id=":6448834734_5" function="internal">
        <lane id=":6448834734_5_0" index="0" allow="pedestrian delivery bicycle" speed="3.65" length="3.23" shape="494.17,213.63 494.20,214.52 493.51,215.08 492.08,215.31"/>
    </edge>
    <edge id=":6525602400_0" function="internal">
        <lane id=":6525602400_0_0" index="0" allow="pedestrian delivery bicycle" speed="5.56" length="9.40" shape="520.93,228.56 512.38,224.64"/>
    </edge>
    <edge id=":6525602400_1" function="internal">
        <lane id=":6525602400_1_0" index="0" allow="pedestrian delivery bicycle" speed="5.56" length="10.25" shape="520.93,228.56 518.56,227.03 517.26,225.12 517.04,222.83 517.88,220.14"/>
    </edge>
    <edge id=":6525602400_2" function="internal">
        <lane id=":6525602400_2_0" index="0" allow="pedestrian delivery bicycle" speed="3.65" length="4.67" shape="520.93,228.56 520.17,227.33 520.14,226.44 520.83,225.88 522.26,225.65"/>
    </edge>
    <edge id=":6525602400_3" function="internal">
        <lane id=":6525602400_3_0" index="0" allow="pedestrian delivery bicycle" speed="5.02" length="5.02" shape="520.77,221.53 520.35,222.84 520.46,223.97 521.10,224.90 522.26,225.65"/>
    </edge>
    <edge id=":6525602400_4" function="internal">
        <lane id=":6525602400_4_0" index="0" allow="pedestrian delivery bicycle" speed="5.56" length="10.17" shape="520.77,221.53 519.22,223.86 517.30,225.16 515.02,225.41 512.38,224.64"/>
    </edge>
    <edge id=":6525602400_5" function="internal">
        <lane id=":6525602400_5_0" index="0" allow="pedestrian delivery bicycle" speed="3.65" length="4.67" shape="520.77,221.53 519.53,222.26 518.63,222.28 518.09,221.57 517.88,220.14"/>
    </edge>
    <edge id=":6525602400_6" function="internal">
        <lane id=":6525602400_6_0" index="0" allow="pedestrian delivery bicycle" speed="5.10" length="5.07" shape="513.71,221.73 515.02,222.11 516.15,221.97 517.11,221.32 517.88,220.14"/>
    </edge>
    <edge id=":6525602400_7" function="internal">
        <lane id=":6525602400_7_0" index="0" allow="pedestrian delivery bicycle" speed="5.56" length="9.40" shape="513.71,221.73 522.26,225.65"/>
    </edge>
    <edge id=":6525602400_8" function="internal">
        <lane id=":6525602400_8_0" index="0" allow="pedestrian delivery bicycle" speed="3.65" length="4.67" shape="513.71,221.73 514.47,222.96 514.50,223.85 513.80,224.41 512.38,224.64"/>
    </edge>
    <edge id=":6525602401_0" function="internal">
        <lane id=":6525602401_0_0" index="0" allow="pedestrian delivery bicycle" speed="3.65" length="4.67" shape="525.66,203.94 526.90,203.20 527.79,203.18 528.34,203.89 528.54,205.32"/>
    </edge>
    <edge id=":6816965287_0" function="internal">
        <lane id=":6816965287_0_0" index="0" disallow="tram rail_urban rail rail_electric rail_fast ship container cable_car subway aircraft wheelchair scooter drone" speed="3.65" length="4.67" shape="416.14,174.34 414.91,173.59 414.48,172.81 414.85,171.99 416.01,171.14"/>
    </edge>

    <edge id="-29162825" from="320748155" to="320683992" priority="11" type="highway.secondary">
        <lane id="-29162825_0" index="0" disallow="tram rail_urban rail rail_electric rail_fast ship container cable_car subway aircraft wheelchair scooter drone" speed="16.67" length="0.20" shape="497.86,174.45 497.66,174.44"/>
        <lane id="-29162825_1" index="1" disallow="tram rail_urban rail rail_electric rail_fast ship container cable_car subway aircraft wheelchair scooter drone" speed="16.67" length="0.20" shape="497.92,171.25 497.72,171.24"/>
    </edge>
    <edge id="-36833384#0" from="2616327441" to="2371091455" priority="11" type="highway.secondary" shape="864.37,214.96 856.92,213.94 777.12,203.03 749.25,199.22 637.97,184.13 626.00,182.68 557.33,174.79">