<?xml version="1.0" encoding="UTF-8"?>

<!-- generated on 2024-09-03 01:37:47 by Eclipse SUMO netconvert Version 1.20.0
<configuration xmlns:xsi="http://www.w3.org/2001/XMLSchema-instance" xsi:noNamespaceSchemaLocation="http://sumo.dlr.de/xsd/netconvertConfiguration.xsd">

    <input>
        <osm-files value="train_files/roundabout/middle/osm_files/map(28).osm"/>
    </input>

    <output>
        <output-file value="train_files/roundabout/middle/outputs/map(28)_dict/map(28)/map(28).net.xml"/>
    </output>

    <projection>
        <proj.utm value="true"/>
    </projection>

    <building_defaults>
        <default.junctions.keep-clear value="false"/>
    </building_defaults>

</configuration>
-->

<net version="1.20" junctionCornerDetail="5" limitTurnSpeed="5.50" xmlns:xsi="http://www.w3.org/2001/XMLSchema-instance" xsi:noNamespaceSchemaLocation="http://sumo.dlr.de/xsd/net_file.xsd">

    <location netOffset="-467581.39,-5389790.29" convBoundary="0.00,0.00,482.13,421.14" origBoundary="2.559748,48.660338,2.566290,48.664127" projParameter="+proj=utm +zone=31 +ellps=WGS84 +datum=WGS84 +units=m +no_defs"/>

    <type id="highway.footway" priority="1" numLanes="1" speed="2.78" allow="pedestrian" oneway="1" width="2.00"/>
    <type id="highway.path" priority="1" numLanes="1" speed="5.56" allow="pedestrian bicycle" oneway="0" width="2.00"/>
    <type id="highway.residential" priority="3" numLanes="1" speed="13.89" disallow="tram rail_urban rail rail_electric rail_fast ship container cable_car subway aircraft wheelchair scooter drone" oneway="0"/>
    <type id="highway.secondary" priority="11" numLanes="1" speed="27.78" disallow="tram rail_urban rail rail_electric rail_fast ship container cable_car subway aircraft wheelchair scooter drone" oneway="0"/>
    <type id="highway.unclassified" priority="4" numLanes="1" speed="13.89" disallow="tram rail_urban rail rail_electric rail_fast ship container cable_car subway aircraft wheelchair scooter drone" oneway="0"/>

    <edge id=":11124629974_0" function="internal">
        <lane id=":11124629974_0_0" index="0" disallow="tram rail_urban rail rail_electric rail_fast ship container cable_car subway aircraft wheelchair scooter drone" speed="8.33" length="5.08" shape="383.11,248.94 378.23,250.39"/>
    </edge>
    <edge id=":11124629974_1" function="internal">
        <lane id=":11124629974_1_0" index="0" disallow="tram rail_urban rail rail_electric rail_fast ship container cable_car subway aircraft wheelchair scooter drone" speed="8.33" length="5.08" shape="377.32,247.33 382.19,245.88"/>
    </edge>
    <edge id=":11352519114_0" function="internal">
        <lane id=":11352519114_0_0" index="0" allow="pedestrian bicycle" speed="5.56" length="3.92" width="2.00" shape="282.12,272.43 281.79,271.32 281.52,270.56 281.15,269.86 280.50,268.90"/>
    </edge>
    <edge id=":11352519114_1" function="internal">
        <lane id=":11352519114_1_0" index="0" allow="pedestrian bicycle" speed="2.89" length="2.34" width="2.00" shape="282.12,272.43 282.39,271.57 282.80,271.19 283.35,271.28 283.60,271.49"/>
    </edge>
    <edge id=":11352519114_4" function="internal">
        <lane id=":11352519114_4_0" index="0" allow="pedestrian bicycle" speed="2.89" length="0.58" width="2.00" shape="283.60,271.49 284.04,271.86"/>
    </edge>
    <edge id=":11352519114_2" function="internal">
        <lane id=":11352519114_2_0" index="0" allow="pedestrian bicycle" speed="5.56" length="4.57" width="2.00" shape="282.13,267.75 282.89,268.87 283.33,269.69 283.65,270.56 284.04,271.86"/>
    </edge>
    <edge id=":11352519114_3" function="internal">
        <lane id=":11352519114_3_0" index="0" allow="pedestrian bicycle" speed="2.89" length="2.51" width="2.00" shape="282.13,267.75 282.16,268.65 281.89,269.14 281.34,269.23 280.88,269.05"/>
    </edge>
    <edge id=":11352519114_5" function="internal">
        <lane id=":11352519114_5_0" index="0" allow="pedestrian bicycle" speed="2.89" length="0.41" width="2.00" shape="280.88,269.05 280.50,268.90"/>
    </edge>
    <edge id=":11362693513_0" function="internal">
        <lane id=":11362693513_0_0" index="0" allow="pedestrian bicycle" speed="5.56" length="3.46" width="2.00" shape="286.14,283.46 284.83,280.25"/>
    </edge>
    <edge id=":11362693513_1" function="internal">
        <lane id=":11362693513_1_0" index="0" allow="pedestrian bicycle" speed="2.89" length="2.92" width="2.00" shape="286.14,283.46 286.32,282.57 286.69,282.15 287.24,282.20 287.99,282.70"/>
    </edge>
    <edge id=":11362693513_2" function="internal">
        <lane id=":11362693513_2_0" index="0" allow="pedestrian bicycle" speed="5.56" length="3.47" width="2.00" shape="286.68,279.49 287.99,282.70"/>
    </edge>
    <edge id=":11362693513_3" function="internal">
        <lane id=":11362693513_3_0" index="0" allow="pedestrian bicycle" speed="2.89" length="2.92" width="2.00" shape="286.68,279.49 286.50,280.37 286.13,280.80 285.58,280.75 284.83,280.25"/>
    </edge>
    <edge id=":11363942575_0" function="internal">
        <lane id=":11363942575_0_0" index="0" allow="pedestrian bicycle" speed="2.89" length="2.92" width="2.00" shape="259.51,105.22 260.00,104.46 260.50,104.20 261.00,104.45 261.51,105.19"/>
    </edge>
    <edge id=":1466751971_0" function="internal">
        <lane id=":1466751971_0_0" index="0" disallow="tram rail_urban rail rail_electric rail_fast ship container cable_car subway aircraft wheelchair scooter drone" speed="3.65" length="4.67" shape="418.61,231.00 420.03,230.76 420.87,231.07 421.13,231.92 420.81,233.33"/>
    </edge>
    <edge id=":2107164780_0" function="internal">
        <lane id=":2107164780_0_0" index="0" disallow="tram rail_urban rail rail_electric rail_fast ship container cable_car subway aircraft wheelchair scooter drone" speed="11.53" length="9.14" width="6.90" shape="267.98,295.34 267.52,292.75 266.69,291.10 265.38,289.67 263.47,287.73"/>
    </edge>
    <edge id=":2107164780_1" function="internal">
        <lane id=":2107164780_1_0" index="0" disallow="tram rail_urban rail rail_electric rail_fast ship container cable_car subway aircraft wheelchair scooter drone" speed="9.78" length="11.10" shape="275.44,287.53 273.45,289.59 272.12,291.92 271.43,294.51 271.39,297.37"/>
    </edge>
    <edge id=":2107164780_2" function="internal">
        <lane id=":2107164780_2_0" index="0" disallow="tram rail_urban rail rail_electric rail_fast ship container cable_car subway aircraft wheelchair scooter drone" speed="8.28" length="13.48" width="6.90" shape="275.44,287.53 272.12,289.68 269.02,290.44 266.13,289.79 263.47,287.73"/>
    </edge>
    <edge id=":2107164781_0" function="internal">
        <lane id=":2107164781_0_0" index="0" disallow="tram rail_urban rail rail_electric rail_fast ship container cable_car subway aircraft wheelchair scooter drone" speed="10.41" length="9.13" width="6.90" shape="271.53,265.98 271.56,268.65 271.96,270.49 272.92,272.12 274.64,274.18"/>
    </edge>
    <edge id=":2107164781_1" function="internal">
        <lane id=":2107164781_1_0" index="0" disallow="tram rail_urban rail rail_electric rail_fast ship container cable_car subway aircraft wheelchair scooter drone" speed="7.67" length="8.52" shape="265.42,273.46 266.63,272.63 267.51,271.10 268.08,268.85 268.33,265.89"/>
    </edge>
    <edge id=":2107164781_2" function="internal">
        <lane id=":2107164781_2_0" index="0" disallow="tram rail_urban rail rail_electric rail_fast ship container cable_car subway aircraft wheelchair scooter drone" speed="8.23" length="9.78" width="6.90" shape="265.42,273.46 268.48,272.65 271.03,272.51 273.09,273.02 274.64,274.18"/>
    </edge>
    <edge id=":2107164783_0" function="internal">
        <lane id=":2107164783_0_0" index="0" disallow="tram rail_urban rail rail_electric rail_fast ship container cable_car subway aircraft wheelchair scooter drone" speed="27.78" length="10.47" shape="268.84,305.97 268.00,295.54"/>
    </edge>
    <edge id=":2107164783_1" function="internal">
        <lane id=":2107164783_1_0" index="0" disallow="tram rail_urban rail rail_electric rail_fast ship container cable_car subway aircraft wheelchair scooter drone" speed="6.15" length="2.37" shape="268.84,305.97 269.17,303.62"/>
    </edge>
    <edge id=":2107164783_2" function="internal">
        <lane id=":2107164783_2_0" index="0" disallow="tram rail_urban rail rail_electric rail_fast ship container cable_car subway aircraft wheelchair scooter drone" speed="3.65" length="1.44" shape="268.84,305.97 269.56,304.72"/>
    </edge>
    <edge id=":2107164783_6" function="internal">
        <lane id=":2107164783_6_0" index="0" disallow="tram rail_urban rail rail_electric rail_fast ship container cable_car subway aircraft wheelchair scooter drone" speed="6.15" length="7.86" shape="269.17,303.62 270.54,302.31 272.95,302.02 276.40,302.76"/>
    </edge>
    <edge id=":2107164783_7" function="internal">
        <lane id=":2107164783_7_0" index="0" disallow="tram rail_urban rail rail_electric rail_fast ship container cable_car subway aircraft wheelchair scooter drone" speed="3.65" length="3.23" shape="269.56,304.72 270.33,304.27 271.15,304.62 272.03,305.76"/>
    </edge>
    <edge id=":2107164783_3" function="internal">
        <lane id=":2107164783_3_0" index="0" disallow="tram rail_urban rail rail_electric rail_fast ship container cable_car subway aircraft wheelchair scooter drone" speed="7.11" length="7.61" shape="271.41,297.62 271.85,299.32 272.83,300.74 274.35,301.89 276.40,302.76"/>
    </edge>
    <edge id=":2107164783_4" function="internal">
        <lane id=":2107164783_4_0" index="0" disallow="tram rail_urban rail rail_electric rail_fast ship container cable_car subway aircraft wheelchair scooter drone" speed="27.78" length="8.16" shape="271.41,297.62 272.03,305.76"/>
    </edge>
    <edge id=":2107164783_5" function="internal">
        <lane id=":2107164783_5_0" index="0" disallow="tram rail_urban rail rail_electric rail_fast ship container cable_car subway aircraft wheelchair scooter drone" speed="3.94" length="1.41" shape="271.41,297.62 270.13,298.22"/>
    </edge>
    <edge id=":2107164783_8" function="internal">
        <lane id=":2107164783_8_0" index="0" disallow="tram rail_urban rail rail_electric rail_fast ship container cable_car subway aircraft wheelchair scooter drone" speed="3.94" length="4.43" shape="270.13,298.22 269.78,298.38 268.66,298.29 268.07,297.34 268.00,295.54"/>
    </edge>
    <edge id=":2107164793_0" function="internal">
        <lane id=":2107164793_0_0" index="0" disallow="tram rail_urban rail rail_electric rail_fast ship container cable_car subway aircraft wheelchair scooter drone" speed="11.47" length="9.13" width="6.90" shape="256.43,272.76 258.98,273.68 260.83,274.21 262.68,274.21 265.23,273.52"/>
    </edge>
    <edge id=":2107164793_1" function="internal">
        <lane id=":2107164793_1_0" index="0" disallow="tram rail_urban rail rail_electric rail_fast ship container cable_car subway aircraft wheelchair scooter drone" speed="8.65" length="9.85" shape="260.86,283.36 260.17,280.62 259.03,278.45 257.44,276.83 255.39,275.78"/>
    </edge>
    <edge id=":2107164793_2" function="internal">
        <lane id=":2107164793_2_0" index="0" disallow="tram rail_urban rail rail_electric rail_fast ship container cable_car subway aircraft wheelchair scooter drone" speed="8.17" length="11.80" width="6.90" shape="260.86,283.36 260.68,279.77 261.35,276.94 262.86,274.86 265.23,273.52"/>
    </edge>
    <edge id=":2874052979_0" function="internal">
        <lane id=":2874052979_0_0" index="0" disallow="tram rail_urban rail rail_electric rail_fast ship container cable_car subway aircraft wheelchair scooter drone" speed="11.27" length="9.47" width="6.90" shape="283.54,278.76 281.04,279.94 279.48,281.10 278.32,282.69 276.99,285.15"/>
    </edge>
    <edge id=":2874052979_1" function="internal">
        <lane id=":2874052979_1_0" index="0" disallow="tram rail_urban rail rail_electric rail_fast ship container cable_car subway aircraft wheelchair scooter drone" speed="7.43" length="8.25" shape="274.77,274.34 276.35,275.70 278.13,276.40 280.11,276.44 282.29,275.81"/>
    </edge>
    <edge id=":2874052979_2" function="internal">
        <lane id=":2874052979_2_0" index="0" disallow="tram rail_urban rail rail_electric rail_fast ship container cable_car subway aircraft wheelchair scooter drone" speed="8.86" length="11.78" width="6.90" shape="274.77,274.34 276.76,277.13 277.79,279.87 277.87,282.54 276.99,285.15"/>
    </edge>
    <edge id=":2874052980_0" function="internal">
        <lane id=":2874052980_0_0" index="0" disallow="tram rail_urban rail rail_electric rail_fast ship container cable_car subway aircraft wheelchair scooter drone" speed="7.66" length="1.15" width="6.90" shape="276.29,286.48 276.13,286.79 276.01,286.99 275.85,287.17 275.60,287.39"/>
    </edge>
    <edge id=":317475630_0" function="internal">
        <lane id=":317475630_0_0" index="0" disallow="tram rail_urban rail rail_electric rail_fast ship container cable_car subway aircraft wheelchair scooter drone" speed="3.65" length="4.67" shape="-0.90,150.91 -1.44,149.58 -1.32,148.69 -0.54,148.25 0.90,148.26"/>
    </edge>
    <edge id=":317566762_0" function="internal">
        <lane id=":317566762_0_0" index="0" disallow="tram rail_urban rail rail_electric rail_fast ship container cable_car subway aircraft wheelchair scooter drone" speed="3.65" length="4.67" shape="275.89,421.08 275.13,422.31 274.35,422.74 273.53,422.37 272.69,421.20"/>
    </edge>
    <edge id=":317572367_0" function="internal">
        <lane id=":317572367_0_0" index="0" disallow="tram rail_urban rail rail_electric rail_fast ship container cable_car subway aircraft wheelchair scooter drone" speed="3.65" length="4.67" shape="264.84,0.01 265.63,-1.19 266.43,-1.60 267.23,-1.21 268.04,-0.01"/>
    </edge>
    <edge id=":317572368_0" function="internal">
        <lane id=":317572368_0_0" index="0" disallow="tram rail_urban rail rail_electric rail_fast ship container cable_car subway aircraft wheelchair scooter drone" speed="8.33" length="0.31" shape="264.89,14.30 264.88,13.99"/>
    </edge>
    <edge id=":317572368_1" function="internal">
        <lane id=":317572368_1_0" index="0" disallow="tram rail_urban rail rail_electric rail_fast ship container cable_car subway aircraft wheelchair scooter drone" speed="8.33" length="0.26" shape="268.08,13.98 268.08,14.24"/>
    </edge>
    <edge id=":317572369_0" function="internal">
        <lane id=":317572369_0_0" index="0" allow="pedestrian bicycle" speed="4.37" length="5.83" width="2.00" shape="274.70,263.12 273.37,262.37 272.40,262.56 271.79,263.67 271.54,265.71"/>
    </edge>
    <edge id=":317572369_1" function="internal">
        <lane id=":317572369_1_0" index="0" allow="pedestrian bicycle" speed="5.56" length="9.02" width="2.00" shape="274.70,263.12 272.54,261.95 270.76,262.00 268.79,262.62 266.12,263.11"/>
    </edge>
    <edge id=":317572369_2" function="internal">
        <lane id=":317572369_2_0" index="0" allow="pedestrian bicycle" speed="6.95" length="7.85" width="2.00" shape="274.70,263.12 273.38,262.28 271.26,260.96 269.27,259.58 268.39,258.53"/>
    </edge>
    <edge id=":317572369_3" function="internal">
        <lane id=":317572369_3_0" index="0" allow="pedestrian bicycle" speed="3.14" length="2.92" width="2.00" shape="274.70,263.12 273.98,262.56 273.77,262.05 274.05,261.57 274.84,261.12"/>
    </edge>
    <edge id=":317572369_4" function="internal">
        <lane id=":317572369_4_0" index="0" allow="pedestrian bicycle" speed="5.02" length="4.68" width="2.00" shape="271.59,258.48 271.81,259.57 272.42,260.37 273.43,260.89 274.84,261.12"/>
    </edge>
    <edge id=":317572369_5" function="internal">
        <lane id=":317572369_5_0" index="0" disallow="tram rail_urban rail rail_electric rail_fast ship container cable_car subway aircraft wheelchair scooter drone" speed="8.33" length="7.23" shape="271.59,258.48 271.54,265.71"/>
    </edge>
    <edge id=":317572369_6" function="internal">
        <lane id=":317572369_6_0" index="0" allow="pedestrian bicycle" speed="6.29" length="1.66" width="2.00" shape="271.59,258.48 271.32,260.11"/>
    </edge>
    <edge id=":317572369_14" function="internal">
        <lane id=":317572369_14_0" index="0" allow="pedestrian bicycle" speed="6.29" length="6.40" width="2.00" shape="271.32,260.11 271.28,260.37 270.26,261.77 268.54,262.69 266.12,263.11"/>
    </edge>
    <edge id=":317572369_7" function="internal">
        <lane id=":317572369_7_0" index="0" allow="pedestrian bicycle" speed="4.48" length="3.98" width="2.00" shape="265.99,261.11 267.06,260.89 267.81,260.39 268.26,259.60 268.39,258.53"/>
    </edge>
    <edge id=":317572369_8" function="internal">
        <lane id=":317572369_8_0" index="0" allow="pedestrian bicycle" speed="5.56" length="8.86" width="2.00" shape="265.99,261.11 268.61,260.96 270.41,260.92 272.21,260.98 274.84,261.12"/>
    </edge>
    <edge id=":317572369_9" function="internal">
        <lane id=":317572369_9_0" index="0" allow="pedestrian bicycle" speed="5.97" length="8.39" width="2.00" shape="265.99,261.11 268.47,261.26 270.22,262.08 271.25,263.56 271.54,265.71"/>
    </edge>
    <edge id=":317572369_10" function="internal">
        <lane id=":317572369_10_0" index="0" allow="pedestrian bicycle" speed="2.89" length="2.92" width="2.00" shape="265.99,261.11 266.77,261.56 267.05,262.05 266.83,262.56 266.12,263.11"/>
    </edge>
    <edge id=":317572369_11" function="internal">
        <lane id=":317572369_11_0" index="0" allow="pedestrian bicycle" speed="4.44" length="3.90" width="2.00" shape="268.34,265.61 268.23,264.46 267.82,263.66 267.12,263.21 266.12,263.11"/>
    </edge>
    <edge id=":317572369_12" function="internal">
        <lane id=":317572369_12_0" index="0" disallow="tram rail_urban rail rail_electric rail_fast ship container cable_car subway aircraft wheelchair scooter drone" speed="8.33" length="7.08" shape="268.34,265.61 268.39,258.53"/>
    </edge>
    <edge id=":317572369_13" function="internal">
        <lane id=":317572369_13_0" index="0" allow="pedestrian bicycle" speed="6.44" length="1.63" width="2.00" shape="268.34,265.61 268.69,264.02"/>
    </edge>
    <edge id=":317572369_15" function="internal">
        <lane id=":317572369_15_0" index="0" allow="pedestrian bicycle" speed="6.44" length="7.38" width="2.00" shape="268.69,264.02 268.80,263.51 270.04,262.07 272.05,261.27 274.84,261.12"/>
    </edge>
    <edge id=":317572498_0" function="internal">
        <lane id=":317572498_0_0" index="0" disallow="tram rail_urban rail rail_electric rail_fast ship container cable_car subway aircraft wheelchair scooter drone" speed="27.78" length="9.23" shape="269.33,315.47 268.86,306.24"/>
    </edge>
    <edge id=":317572498_1" function="internal">
        <lane id=":317572498_1_0" index="0" disallow="tram rail_urban rail rail_electric rail_fast ship container cable_car subway aircraft wheelchair scooter drone" speed="3.65" length="1.44" shape="269.33,315.47 270.08,314.23"/>
    </edge>
    <edge id=":317572498_6" function="internal">
        <lane id=":317572498_6_0" index="0" disallow="tram rail_urban rail rail_electric rail_fast ship container cable_car subway aircraft wheelchair scooter drone" speed="3.65" length="3.23" shape="270.08,314.23 270.86,313.80 271.67,314.17 272.52,315.33"/>
    </edge>
    <edge id=":317572498_2" function="internal">
        <lane id=":317572498_2_0" index="0" disallow="tram rail_urban rail rail_electric rail_fast ship container cable_car subway aircraft wheelchair scooter drone" speed="27.78" length="9.31" shape="272.05,306.03 272.52,315.33"/>
    </edge>
    <edge id=":317572498_3" function="internal">
        <lane id=":317572498_3_0" index="0" disallow="tram rail_urban rail rail_electric rail_fast ship container cable_car subway aircraft wheelchair scooter drone" speed="3.65" length="1.44" shape="272.05,306.03 271.33,307.28"/>
    </edge>
    <edge id=":317572498_7" function="internal">
        <lane id=":317572498_7_0" index="0" disallow="tram rail_urban rail rail_electric rail_fast ship container cable_car subway aircraft wheelchair scooter drone" speed="3.65" length="3.23" shape="271.33,307.28 270.56,307.73 269.74,307.39 268.86,306.24"/>
    </edge>
    <edge id=":317572498_4" function="internal">
        <lane id=":317572498_4_0" index="0" disallow="tram rail_urban rail rail_electric rail_fast ship container cable_car subway aircraft wheelchair scooter drone" speed="7.43" length="8.14" shape="264.47,312.56 266.49,311.23 267.89,309.73 268.68,308.07 268.86,306.24"/>
    </edge>
    <edge id=":317572498_5" function="internal">
        <lane id=":317572498_5_0" index="0" disallow="tram rail_urban rail rail_electric rail_fast ship container cable_car subway aircraft wheelchair scooter drone" speed="6.25" length="11.09" shape="264.47,312.56 267.89,311.16 270.37,311.16 271.91,312.55 272.52,315.33"/>
    </edge>
    <edge id=":4853311370_0" function="internal">
        <lane id=":4853311370_0_0" index="0" disallow="tram rail_urban rail rail_electric rail_fast ship container cable_car subway aircraft wheelchair scooter drone" speed="8.33" length="8.45" shape="255.20,275.72 252.83,274.92 251.23,274.23 249.83,273.23 248.03,271.51"/>
    </edge>
    <edge id=":4853311370_1" function="internal">
        <lane id=":4853311370_1_0" index="0" allow="pedestrian bicycle" speed="6.00" length="2.61" width="2.00" shape="255.20,275.72 252.92,274.45"/>
    </edge>
    <edge id=":4853311370_7" function="internal">
        <lane id=":4853311370_7_0" index="0" allow="pedestrian bicycle" speed="6.00" length="7.87" width="2.00" shape="252.92,274.45 252.22,272.71 253.10,270.51 255.55,267.84"/>
    </edge>
    <edge id=":4853311370_2" function="internal">
        <lane id=":4853311370_2_0" index="0" allow="pedestrian bicycle" speed="4.00" length="4.40" width="2.00" shape="256.89,269.33 255.76,270.51 255.27,271.47 255.43,272.20 256.24,272.69"/>
    </edge>
    <edge id=":4853311370_3" function="internal">
        <lane id=":4853311370_3_0" index="0" allow="pedestrian bicycle" speed="6.83" length="10.07" width="2.00" shape="256.89,269.33 254.14,271.43 251.75,272.50 249.71,272.52 248.03,271.51"/>
    </edge>
    <edge id=":4853311370_4" function="internal">
        <lane id=":4853311370_4_0" index="0" allow="pedestrian bicycle" speed="2.89" length="2.92" width="2.00" shape="256.89,269.33 256.00,269.45 255.48,269.25 255.33,268.71 255.55,267.84"/>
    </edge>
    <edge id=":4853311370_5" function="internal">
        <lane id=":4853311370_5_0" index="0" allow="pedestrian bicycle" speed="5.51" length="5.97" width="2.00" shape="250.32,269.27 251.28,269.83 252.48,269.78 253.90,269.11 255.55,267.84"/>
    </edge>
    <edge id=":4853311370_6" function="internal">
        <lane id=":4853311370_6_0" index="0" disallow="tram rail_urban rail rail_electric rail_fast ship container cable_car subway aircraft wheelchair scooter drone" speed="8.33" length="6.96" shape="250.32,269.27 251.80,270.68 252.96,271.49 254.28,272.04 256.24,272.69"/>
    </edge>
    <edge id=":4853311372_0" function="internal">
        <lane id=":4853311372_0_0" index="0" allow="pedestrian bicycle" speed="5.56" length="4.29" width="2.00" shape="265.92,263.12 264.66,263.23 263.80,263.43 263.03,263.87 262.07,264.67"/>
    </edge>
    <edge id=":4853311372_1" function="internal">
        <lane id=":4853311372_1_0" index="0" allow="pedestrian bicycle" speed="5.49" length="6.60" width="2.00" shape="265.92,263.12 264.31,262.94 263.13,262.16 262.38,260.78 262.05,258.81"/>
    </edge>
    <edge id=":4853311372_2" function="internal">
        <lane id=":4853311372_2_0" index="0" allow="pedestrian bicycle" speed="2.89" length="2.92" width="2.00" shape="265.92,263.12 265.14,262.67 264.86,262.19 265.07,261.67 265.79,261.13"/>
    </edge>
    <edge id=":4853311372_3" function="internal">
        <lane id=":4853311372_3_0" index="0" allow="pedestrian bicycle" speed="4.08" length="3.35" width="2.00" shape="264.05,258.72 264.21,259.81 264.55,260.58 265.07,261.01 265.79,261.13"/>
    </edge>
    <edge id=":4853311372_4" function="internal">
        <lane id=":4853311372_4_0" index="0" allow="pedestrian bicycle" speed="5.56" length="6.49" width="2.00" shape="264.05,258.72 264.00,260.59 263.65,262.21 263.01,263.57 262.07,264.67"/>
    </edge>
    <edge id=":4853311372_5" function="internal">
        <lane id=":4853311372_5_0" index="0" allow="pedestrian bicycle" speed="2.89" length="2.92" width="2.00" shape="264.05,258.72 263.59,259.49 263.10,259.76 262.59,259.54 262.05,258.81"/>
    </edge>
    <edge id=":4853311372_6" function="internal">
        <lane id=":4853311372_6_0" index="0" allow="pedestrian bicycle" speed="5.56" length="4.72" width="2.00" shape="260.73,263.19 261.36,262.42 261.80,261.43 262.03,260.23 262.05,258.81"/>
    </edge>
    <edge id=":4853311372_7" function="internal">
        <lane id=":4853311372_7_0" index="0" allow="pedestrian bicycle" speed="5.56" length="5.64" width="2.00" shape="260.73,263.19 261.99,262.12 263.00,261.54 264.13,261.27 265.79,261.13"/>
    </edge>
    <edge id=":4853311372_8" function="internal">
        <lane id=":4853311372_8_0" index="0" allow="pedestrian bicycle" speed="2.89" length="2.92" width="2.00" shape="260.73,263.19 261.62,263.06 262.14,263.26 262.29,263.80 262.07,264.67"/>
    </edge>
    <edge id=":5303873130_0" function="internal">
        <lane id=":5303873130_0_0" index="0" allow="pedestrian bicycle" speed="3.34" length="2.01" width="2.00" shape="284.75,280.07 284.56,279.47 284.41,278.95 284.17,278.64 283.72,278.68"/>
    </edge>
    <edge id=":5303873130_1" function="internal">
        <lane id=":5303873130_1_0" index="0" allow="pedestrian bicycle" speed="5.56" length="7.96" width="2.00" shape="284.75,280.07 283.87,277.88 283.32,276.36 282.83,274.81 282.16,272.55"/>
    </edge>
    <edge id=":5303873130_2" function="internal">
        <lane id=":5303873130_2_0" index="0" allow="pedestrian bicycle" speed="5.77" length="7.83" width="2.00" shape="284.75,280.07 284.22,277.96 284.53,276.24 285.67,274.93 287.64,274.02"/>
    </edge>
    <edge id=":5303873130_3" function="internal">
        <lane id=":5303873130_3_0" index="0" allow="pedestrian bicycle" speed="2.89" length="2.92" width="2.00" shape="284.75,280.07 284.93,279.18 285.30,278.76 285.85,278.80 286.60,279.31"/>
    </edge>
    <edge id=":5303873130_4" function="internal">
        <lane id=":5303873130_4_0" index="0" allow="pedestrian bicycle" speed="4.19" length="3.38" width="2.00" shape="288.56,277.09 287.48,277.51 286.79,278.02 286.50,278.62 286.60,279.31"/>
    </edge>
    <edge id=":5303873130_5" function="internal">
        <lane id=":5303873130_5_0" index="0" disallow="tram rail_urban rail rail_electric rail_fast ship container cable_car subway aircraft wheelchair scooter drone" speed="8.33" length="5.10" shape="288.56,277.09 287.10,277.50 286.10,277.78 285.12,278.12 283.72,278.68"/>
    </edge>
    <edge id=":5303873130_6" function="internal">
        <lane id=":5303873130_6_0" index="0" allow="pedestrian bicycle" speed="6.47" length="1.52" width="2.00" shape="288.56,277.09 287.04,277.25"/>
    </edge>
    <edge id=":5303873130_14" function="internal">
        <lane id=":5303873130_14_0" index="0" allow="pedestrian bicycle" speed="6.47" length="7.38" width="2.00" shape="287.04,277.25 286.42,277.32 284.64,276.64 283.22,275.05 282.16,272.55"/>
    </edge>
    <edge id=":5303873130_7" function="internal">
        <lane id=":5303873130_7_0" index="0" allow="pedestrian bicycle" speed="4.74" length="4.69" width="2.00" shape="284.08,271.98 284.62,273.17 285.39,273.91 286.40,274.19 287.64,274.02"/>
    </edge>
    <edge id=":5303873130_8" function="internal">
        <lane id=":5303873130_8_0" index="0" allow="pedestrian bicycle" speed="5.56" length="7.76" width="2.00" shape="284.08,271.98 284.73,274.18 285.20,275.69 285.74,277.17 286.60,279.31"/>
    </edge>
    <edge id=":5303873130_9" function="internal">
        <lane id=":5303873130_9_0" index="0" allow="pedestrian bicycle" speed="5.97" length="7.18" width="2.00" shape="284.08,271.98 284.71,274.58 284.86,276.56 284.53,277.93 283.72,278.68"/>
    </edge>
    <edge id=":5303873130_10" function="internal">
        <lane id=":5303873130_10_0" index="0" allow="pedestrian bicycle" speed="2.89" length="2.92" width="2.00" shape="284.08,271.98 283.81,272.84 283.40,273.22 282.85,273.13 282.16,272.55"/>
    </edge>
    <edge id=":5303873130_11" function="internal">
        <lane id=":5303873130_11_0" index="0" allow="pedestrian bicycle" speed="4.48" length="3.41" width="2.00" shape="282.48,275.73 282.86,275.21 282.77,274.35 282.46,273.40 282.16,272.55"/>
    </edge>
    <edge id=":5303873130_12" function="internal">
        <lane id=":5303873130_12_0" index="0" disallow="tram rail_urban rail rail_electric rail_fast ship container cable_car subway aircraft wheelchair scooter drone" speed="8.33" length="5.45" shape="282.48,275.73 283.98,275.13 285.02,274.77 286.09,274.47 287.64,274.02"/>
    </edge>
    <edge id=":5303873130_13" function="internal">
        <lane id=":5303873130_13_0" index="0" allow="pedestrian bicycle" speed="5.44" length="1.51" width="2.00" shape="282.48,275.73 283.58,275.60 283.94,275.78"/>
    </edge>
    <edge id=":5303873130_15" function="internal">
        <lane id=":5303873130_15_0" index="0" allow="pedestrian bicycle" speed="5.44" length="4.53" width="2.00" shape="283.94,275.78 284.64,276.15 285.65,277.38 286.60,279.31"/>
    </edge>
    <edge id=":5303873139_0" function="internal">
        <lane id=":5303873139_0_0" index="0" allow="pedestrian bicycle" speed="2.89" length="2.92" width="2.00" shape="471.00,377.12 471.08,378.02 470.85,378.53 470.31,378.65 469.45,378.39"/>
    </edge>
    <edge id=":5303873145_0" function="internal">