<?xml version="1.0" encoding="UTF-8"?>

<!-- generated on 2024-09-03 01:38:43 by Eclipse SUMO duarouter Version 1.20.0
<configuration xmlns:xsi="http://www.w3.org/2001/XMLSchema-instance" xsi:noNamespaceSchemaLocation="http://sumo.dlr.de/xsd/duarouterConfiguration.xsd">

    <input>
        <net-file value="train_files/intersection/hard/outputs/map(53)_dict/map(53)/map(53).net.xml"/>
        <route-files value="train_files/intersection/hard/outputs/map(53)_dict/map(53)/map(53).trips.xml"/>
    </input>

    <output>
        <output-file value="train_files/intersection/hard/outputs/map(53)_dict/map(53)/map(53).rou.xml"/>
    </output>

    <report>
        <ignore-errors value="true"/>
    </report>

</configuration>
-->

<routes xmlns:xsi="http://www.w3.org/2001/XMLSchema-instance" xsi:noNamespaceSchemaLocation="http://sumo.dlr.de/xsd/routes_file.xsd">
    <vehicle id="1" depart="0.72">
        <route edges="229688365#0 229688365#1 963150439 22973545#0 22973545#1"/>
    </vehicle>
    <vehicle id="3" depart="2.16">
        <route edges="964393320#0 964393320#1 964393320#2 964390997 964391619 963150439 22973545#0 22973545#1"/>
    </vehicle>
    <vehicle id="5" depart="3.60">
        <route edges="1160199981#0 1160199981#1 963150437#0 963150437#1"/>
    </vehicle>
    <vehicle id="6" depart="4.32">
        <route edges="-22973545#1 -22973545#0 -963150439 963150439 22973545#0 22973545#1"/>
    </vehicle>
    <vehicle id="8" depart="5.76">
        <route edges="1160199981#0 1160199981#1 963150437#0 963150437#1"/>
    </vehicle>
    <vehicle id="9" depart="6.48">
        <route edges="964390929 963150441#0 963150441#1 963150441#2 963150439 22973545#0 22973545#1"/>
    </vehicle>
    <vehicle id="10" depart="7.20">
        <route edges="964390929 963150441#0 963150441#1 963150441#2 985563041 963150437#0 963150437#1"/>
    </vehicle>
    <vehicle id="11" depart="7.92">
        <route edges="229688365#0 229688365#1 963150439 22973545#0 22973545#1"/>
    </vehicle>
    <vehicle id="12" depart="8.64">
        <route edges="964393320#0 964393320#1 964393320#2 964390997 964391619 963150438 688692772"/>
    </vehicle>
    <vehicle id="13" depart="9.36">
        <route edges="-22973545#1 -22973545#0 -963150439 963150439 22973545#0 22973545#1"/>
    </vehicle>
    <vehicle id="14" depart="10.08">
        <route edges="964390929 963150441#0 963150441#1 963150441#2 985563041 963150437#0 963150437#1"/>
    </vehicle>
    <vehicle id="15" depart="10.80">
        <route edges="964390929 963150441#0 963150441#1 963150441#2 985563041 963150437#0 963150437#1"/>
    </vehicle>
    <vehicle id="18" depart="12.96">
        <route edges="964390929 963150441#0 963150441#1 963150441#2 985563041 963150437#0 963150437#1"/>
    </vehicle>
    <vehicle id="19" depart="13.68">
        <route edges="964390929 963150441#0 963150441#1 963150441#2 985563041 963150437#0 963150437#1"/>
    </vehicle>
    <vehicle id="22" depart="15.84">
        <route edges="-22973545#1 -22973545#0 -963150439 963150439 22973545#0 22973545#1"/>
    </vehicle>
    <vehicle id="23" depart="16.56">
        <route edges="-22973545#1 -22973545#0 -963150439 963150438 688692772"/>
    </vehicle>
    <vehicle id="25" depart="18.00">
        <route edges="229688365#0 229688365#1 963150439 22973545#0 22973545#1"/>
    </vehicle>
    <vehicle id="26" depart="18.72">
        <route edges="229688365#0 229688365#1 963150439 22973545#0 22973545#1 -22973545#1 -22973545#0 -963150439 985563041 963150436 963150434 963150432 964390999"/>
    </vehicle>
    <vehicle id="28" depart="20.16">
        <route edges="1160199981#0 1160199981#1 963150437#0 963150437#1"/>
    </vehicle>
    <vehicle id="30" depart="21.60">
        <route edges="964393320#0 964393320#1 964393320#2 964390997 964391619 963150439 22973545#0 22973545#1 -22973545#1 -22973545#0 -963150439 985563041 963150437#0 963150437#1"/>
    </vehicle>
    <vehicle id="31" depart="22.32">
        <route edges="229688729#0 229688729#1 229688729#2 964391618 963150437#0 963150437#1"/>
    </vehicle>
    <vehicle id="32" depart="23.04">
        <route edges="964390929 963150441#0 963150441#1 963150441#2 985563041 963150436 963150434 963150432 964390999"/>
    </vehicle>
    <vehicle id="34" depart="24.48">
        <route edges="229688365#0 229688365#1 963150439 22973545#0 22973545#1 -22973545#1 -22973545#0 -963150439 963150438 688692772"/>
    </vehicle>
    <vehicle id="35" depart="25.20">
        <route edges="1160199981#0 1160199981#1 963150436 963150434 963150432 964390999"/>
    </vehicle>
    <vehicle id="36" depart="25.92">
        <route edges="964393320#0 964393320#1 964393320#2 964390997 964391619 963150438 688692772"/>
    </vehicle>
    <vehicle id="38" depart="27.36">
        <route edges="964393320#0 964393320#1 964393320#2 964390997 964391619 963150438 688692772"/>
    </vehicle>
    <vehicle id="39" depart="28.08">
        <route edges="229688365#0 229688365#1 963150439 22973545#0 22973545#1"/>
    </vehicle>
    <vehicle id="43" depart="30.96">
        <route edges="964393320#0 964393320#1 964393320#2 964390997 964391619 963150439 22973545#0 22973545#1 -22973545#1 -22973545#0 -963150439 985563041 963150437#0 963150437#1"/>
    </vehicle>
    <vehicle id="44" depart="31.68">
        <route edges="-22973545#1 -22973545#0 -963150439 963150439 22973545#0 22973545#1"/>
    </vehicle>
    <vehicle id="45" depart="32.40">
        <route edges="-22973545#1 -22973545#0 -963150439 985563041 963150437#0 963150437#1"/>
    </vehicle>
    <vehicle id="46" depart="33.12">
        <route edges="964390929 963150441#0 963150441#1 963150441#2 963150438 688692772"/>
    </vehicle>
    <vehicle id="47" depart="33.84">
        <route edges="-22973545#1 -22973545#0 -963150439 963150438 688692772"/>
    </vehicle>
    <vehicle id="48" depart="34.56">
        <route edges="964393320#0 964393320#1 964393320#2 964390997 964391619 963150439 22973545#0 22973545#1 -22973545#1 -22973545#0 -963150439 985563041 963150437#0 963150437#1"/>
    </vehicle>
    <vehicle id="49" depart="35.28">
        <route edges="964393320#0 964393320#1 964393320#2 964390997 964391619 963150439 22973545#0 22973545#1 -22973545#1 -22973545#0 -963150439 985563041 963150436 963150434 963150432 964390999"/>
    </vehicle>
    <vehicle id="50" depart="36.00">
        <route edges="-22973545#1 -22973545#0 -963150439 985563041 963150437#0 963150437#1"/>
    </vehicle>
    <vehicle id="52" depart="37.44">
        <route edges="229688365#0 229688365#1 963150439 22973545#0 22973545#1 -22973545#1 -22973545#0 -963150439 985563041 963150437#0 963150437#1"/>
    </vehicle>
    <vehicle id="53" depart="38.16">
        <route edges="-22973545#1 -22973545#0 -963150439 963150438 688692772"/>
    </vehicle>
    <vehicle id="55" depart="39.60">
        <route edges="964393320#0 964393320#1 964393320#2 964390997 964391619 963150438 688692772"/>
    </vehicle>
    <vehicle id="57" depart="41.04">
        <route edges="964393320#0 964393320#1 964393320#2 964390997 964391619 963150439 22973545#0 22973545#1 -22973545#1 -22973545#0 -963150439 985563041 963150436 963150434 963150432 964390999"/>
    </vehicle>
    <vehicle id="58" depart="41.76">
        <route edges="229688365#0 229688365#1 963150439 22973545#0 22973545#1 -22973545#1 -22973545#0 -963150439 985563041 963150437#0 963150437#1"/>
    </vehicle>
    <vehicle id="60" depart="43.20">
        <route edges="964390929 963150441#0 963150441#1 963150441#2 985563041 963150437#0 963150437#1"/>
    </vehicle>
    <vehicle id="61" depart="43.92">
        <route edges="964390929 963150441#0 963150441#1 963150441#2 985563041 963150437#0 963150437#1"/>
    </vehicle>
    <vehicle id="62" depart="44.64">
        <route edges="-22973545#1 -22973545#0 -963150439 963150438 688692772"/>
    </vehicle>
    <vehicle id="63" depart="45.36">
        <route edges="-22973545#1 -22973545#0 -963150439 985563041 963150436 963150434 963150432 964390999"/>
    </vehicle>
    <vehicle id="64" depart="46.08">
        <route edges="964393320#0 964393320#1 964393320#2 964390997 964391619 963150439 22973545#0 22973545#1 -22973545#1 -22973545#0 -963150439 985563041 963150436 963150434 963150432 964390999"/>
    </vehicle>
    <vehicle id="65" depart="46.80">
        <route edges="229688365#0 229688365#1 963150439 22973545#0 22973545#1"/>
    </vehicle>
    <vehicle id="66" depart="47.52">
        <route edges="964393320#0 964393320#1 964393320#2 964390997 964391619 963150439 22973545#0 22973545#1 -22973545#1 -22973545#0 -963150439 985563041 963150436 963150434 963150432 964390999"/>
    </vehicle>
    <vehicle id="67" depart="48.24">
        <route edges="-22973545#1 -22973545#0 -963150439 963150438 688692772"/>
    </vehicle>
    <vehicle id="68" depart="48.96">
        <route edges="-22973545#1 -22973545#0 -963150439 985563041 963150436 963150434 963150432 964390999"/>
    </vehicle>
    <vehicle id="69" depart="49.68">
        <route edges="964390929 963150441#0 963150441#1 963150441#2 963150439 22973545#0 22973545#1"/>
    </vehicle>
    <vehicle id="71" depart="51.12">
        <route edges="229688365#0 229688365#1 963150439 22973545#0 22973545#1 -22973545#1 -22973545#0 -963150439 985563041 963150436 963150434 963150432 964390999"/>
    </vehicle>
    <vehicle id="73" depart="52.56">
        <route edges="229688729#0 229688729#1 229688729#2 964391618 963150437#0 963150437#1"/>
    </vehicle>
    <vehicle id="75" depart="54.00">
        <route edges="964393320#0 964393320#1 964393320#2 964390997 964391619 963150439 22973545#0 22973545#1 -22973545#1 -22973545#0 -963150439 985563041 963150437#0 963150437#1"/>
    </vehicle>
    <vehicle id="77" depart="55.44">
        <route edges="-22973545#1 -22973545#0 -963150439 963150439 22973545#0 22973545#1"/>
    </vehicle>
    <vehicle id="78" depart="56.16">
        <route edges="229688365#0 229688365#1 963150439 22973545#0 22973545#1 -22973545#1 -22973545#0 -963150439 985563041 963150437#0 963150437#1"/>
    </vehicle>
    <vehicle id="80" depart="57.60">
        <route edges="-22973545#1 -22973545#0 -963150439 985563041 963150437#0 963150437#1"/>
    </vehicle>
    <vehicle id="81" depart="58.32">
        <route edges="1160199981#0 1160199981#1 963150436 963150434 963150432 964390999"/>
    </vehicle>
    <vehicle id="82" depart="59.04">
        <route edges="964390929 963150441#0 963150441#1 963150441#2 963150439 22973545#0 22973545#1"/>
    </vehicle>
    <vehicle id="83" depart="59.76">
        <route edges="1160199981#0 1160199981#1 963150437#0 963150437#1"/>
    </vehicle>
    <vehicle id="85" depart="61.20">
        <route edges="964393320#0 964393320#1 964393320#2 964390997 964391619 963150439 22973545#0 22973545#1 -22973545#1 -22973545#0 -963150439 985563041 963150437#0 963150437#1"/>
    </vehicle>
    <vehicle id="87" depart="62.64">
        <route edges="964390929 963150441#0 963150441#1 963150441#2 963150439 22973545#0 22973545#1"/>
    </vehicle>
    <vehicle id="88" depart="63.36">
        <route edges="-22973545#1 -22973545#0 -963150439 963150438 688692772"/>
    </vehicle>
    <vehicle id="89" depart="64.08">
        <route edges="229688371#0 229688371#1 229688371#2 688692772"/>
    </vehicle>
    <vehicle id="91" depart="65.52">
        <route edges="964393320#0 964393320#1 964393320#2 964390997 964391619 963150439 22973545#0 22973545#1"/>
    </vehicle>
    <vehicle id="92" depart="66.24">
        <route edges="229688371#0 229688371#1 229688371#2 688692772"/>
    </vehicle>
    <vehicle id="93" depart="66.96">
        <route edges="964390929 963150441#0 963150441#1 963150441#2 963150439 22973545#0 22973545#1"/>
    </vehicle>
    <vehicle id="95" depart="68.40">
        <route edges="229688371#0 229688371#1 229688371#2 688692772"/>
    </vehicle>
    <vehicle id="96" depart="69.12">
        <route edges="1160199981#0 1160199981#1 963150436 963150434 963150432 964390999"/>
    </vehicle>
    <vehicle id="99" depart="71.28">
        <route edges="964393320#0 964393320#1 964393320#2 964390997 964391619 963150439 22973545#0 22973545#1 -22973545#1 -22973545#0 -963150439 985563041 963150436 963150434 963150432 964390999"/>
    </vehicle>
    <vehicle id="100" depart="72.00">
        <route edges="964393320#0 964393320#1 964393320#2 964390997 964391619 963150439 22973545#0 22973545#1 -22973545#1 -22973545#0 -963150439 985563041 963150436 963150434 963150432 964390999"/>
    </vehicle>
    <vehicle id="101" depart="72.72">
        <route edges="964390929 963150441#0 963150441#1 963150441#2 963150439 22973545#0 22973545#1"/>
    </vehicle>
    <vehicle id="105" depart="75.60">
        <route edges="229688365#0 229688365#1 963150439 22973545#0 22973545#1 -22973545#1 -22973545#0 -963150439 985563041 963150436 963150434 963150432 964390999"/>
    </vehicle>
    <vehicle id="106" depart="76.32">
        <route edges="229688371#0 229688371#1 229688371#2 688692772"/>
    </vehicle>
    <vehicle id="107" depart="77.04">
        <route edges="964393320#0 964393320#1 964393320#2 964390997 964391619 963150439 22973545#0 22973545#1 -22973545#1 -22973545#0 -963150439 985563041 963150436 963150434 963150432 964390999"/>
    </vehicle>
    <vehicle id="108" depart="77.76">
        <route edges="229688729#0 229688729#1 229688729#2 964391618 963150437#0 963150437#1"/>
    </vehicle>
    <vehicle id="110" depart="79.20">
        <route edges="964393320#0 964393320#1 964393320#2 964390997 964391619 963150439 22973545#0 22973545#1 -22973545#1 -22973545#0 -963150439 985563041 963150437#0 963150437#1"/>
    </vehicle>
    <vehicle id="111" depart="79.92">
        <route edges="229688729#0 229688729#1 229688729#2 964391618 963150437#0 963150437#1"/>
    </vehicle>
    <vehicle id="112" depart="80.64">
        <route edges="-22973545#1 -22973545#0 -963150439 985563041 963150437#0 963150437#1"/>
    </vehicle>
    <vehicle id="114" depart="82.08">
        <route edges="1160199981#0 1160199981#1 963150436 963150434 963150432 964390999"/>
    </vehicle>
    <vehicle id="115" depart="82.80">
        <route edges="-22973545#1 -22973545#0 -963150439 963150439 22973545#0 22973545#1"/>
    </vehicle>
    <vehicle id="116" depart="83.52">
        <route edges="229688729#0 229688729#1 229688729#2 964391618 963150437#0 963150437#1"/>
    </vehicle>
    <vehicle id="118" depart="84.96">
        <route edges="964393320#0 964393320#1 964393320#2 964390997 964391619 963150439 22973545#0 22973545#1"/>
    </vehicle>
    <vehicle id="119" depart="85.68">
        <route edges="229688729#0 229688729#1 229688729#2 964391618 963150437#0 963150437#1"/>
    </vehicle>
    <vehicle id="122" depart="87.84">
        <route edges="1160199981#0 1160199981#1 963150437#0 963150437#1"/>
    </vehicle>
    <vehicle id="125" depart="90.00">
        <route edges="229688365#0 229688365#1 963150439 22973545#0 22973545#1 -22973545#1 -22973545#0 -963150439 985563041 963150436 963150434 963150432 964390999"/>
    </vehicle>
    <vehicle id="126" depart="90.72">
        <route edges="-22973545#1 -22973545#0 -963150439 963150438 688692772"/>
    </vehicle>
    <vehicle id="127" depart="91.44">
        <route edges="964393320#0 964393320#1 964393320#2 964390997 964391619 963150439 22973545#0 22973545#1 -22973545#1 -22973545#0 -963150439 985563041 963150436 963150434 963150432 964390999"/>
    </vehicle>
    <vehicle id="128" depart="92.16">
        <route edges="-22973545#1 -22973545#0 -963150439 963150439 22973545#0 22973545#1"/>
    </vehicle>
    <vehicle id="129" depart="92.88">
        <route edges="229688365#0 229688365#1 963150439 22973545#0 22973545#1 -22973545#1 -22973545#0 -963150439 985563041 963150436 963150434 963150432 964390999"/>
    </vehicle>
    <vehicle id="130" depart="93.60">
        <route edges="964393320#0 964393320#1 964393320#2 964390997 964391619 963150439 22973545#0 22973545#1 -22973545#1 -22973545#0 -963150439 985563041 963150436 963150434 963150432 964390999"/>
    </vehicle>
    <vehicle id="131" depart="94.32">
        <route edges="229688365#0 229688365#1 963150439 22973545#0 22973545#1"/>
    </vehicle>
    <vehicle id="132" depart="95.04">
        <route edges="964390929 963150441#0 963150441#1 963150441#2 985563041 963150437#0 963150437#1"/>
    </vehicle>
    <vehicle id="135" depart="97.20">
        <route edges="964390929 963150441#0 963150441#1 963150441#2 963150438 688692772"/>
    </vehicle>
    <vehicle id="136" depart="97.92">
        <route edges="963150431#0 963150431#1 963150432 964390999"/>
    </vehicle>
    <vehicle id="138" depart="99.36">
        <route edges="-22973545#1 -22973545#0 -963150439 985563041 963150437#0 963150437#1"/>
    </vehicle>
    <vehicle id="139" depart="100.08">
        <route edges="229688365#0 229688365#1 963150439 22973545#0 22973545#1 -22973545#1 -22973545#0 -963150439 985563041 963150437#0 963150437#1"/>
    </vehicle>
    <vehicle id="143" depart="102.96">
        <route edges="964390929 963150441#0 963150441#1 963150441#2 963150439 22973545#0 22973545#1"/>
    </vehicle>
    <vehicle id="144" depart="103.68">
        <route edges="229688371#0 229688371#1 229688371#2 688692772"/>
    </vehicle>
    <vehicle id="145" depart="104.40">
        <route edges="-22973545#1 -22973545#0 -963150439 985563041 963150436 963150434 963150432 964390999"/>
    </vehicle>
    <vehicle id="149" depart="107.28">
        <route edges="-22973545#1 -22973545#0 -963150439 985563041 963150436 963150434 963150432 964390999"/>
    </vehicle>
    <vehicle id="150" depart="108.00">
        <route edges="964393320#0 964393320#1 964393320#2 964390997 964391619 963150439 22973545#0 22973545#1 -22973545#1 -22973545#0 -963150439 985563041 963150437#0 963150437#1"/>
    </vehicle>
    <vehicle id="151" depart="108.72">
        <route edges="964390929 963150441#0 963150441#1 963150441#2 985563041 963150437#0 963150437#1"/>
    </vehicle>
    <vehicle id="153" depart="110.16">
        <route edges="229688365#0 229688365#1 963150439 22973545#0 22973545#1 -22973545#1 -22973545#0 -963150439 985563041 963150436 963150434 963150432 964390999"/>
    </vehicle>
    <vehicle id="154" depart="110.88">
        <route edges="964390929 963150441#0 963150441#1 963150441#2 985563041 963150436 963150434 963150432 964390999"/>
    </vehicle>
    <vehicle id="155" depart="111.60">
        <route edges="964393320#0 964393320#1 964393320#2 964390997 964391619 963150439 22973545#0 22973545#1"/>
    </vehicle>
    <vehicle id="157" depart="113.04">
        <route edges="964390929 963150441#0 963150441#1 963150441#2 985563041 963150436 963150434 963150432 964390999"/>
    </vehicle>
    <vehicle id="159" depart="114.48">
        <route edges="1160199981#0 1160199981#1 963150436 963150434 963150432 964390999"/>
    </vehicle>
    <vehicle id="160" depart="115.20">
        <route edges="964390929 963150441#0 963150441#1 963150441#2 985563041 963150436 963150434 963150432 964390999"/>
    </vehicle>
    <vehicle id="161" depart="115.92">
        <route edges="964390929 963150441#0 963150441#1 963150441#2 985563041 963150436 963150434 963150432 964390999"/>
    </vehicle>
    <vehicle id="162" depart="116.64">
        <route edges="-22973545#1 -22973545#0 -963150439 985563041 963150437#0 963150437#1"/>
    </vehicle>
    <vehicle id="163" depart="117.36">
        <route edges="229688365#0 229688365#1 963150439 22973545#0 22973545#1 -22973545#1 -22973545#0 -963150439 985563041 963150436 963150434 963150432 964390999"/>
    </vehicle>
    <vehicle id="164" depart="118.08">
        <route edges="964390929 963150441#0 963150441#1 963150441#2 985563041 963150436 963150434 963150432 964390999"/>
    </vehicle>
    <vehicle id="165" depart="118.80">
        <route edges="964390929 963150441#0 963150441#1 963150441#2 963150438 688692772"/>
    </vehicle>
    <vehicle id="166" depart="119.52">
        <route edges="964390929 963150441#0 963150441#1 963150441#2 963150439 22973545#0 22973545#1"/>
    </vehicle>
    <vehicle id="167" depart="120.24">
        <route edges="964390929 963150441#0 963150441#1 963150441#2 985563041 963150436 963150434 963150432 964390999"/>
    </vehicle>
    <vehicle id="168" depart="120.96">
        <route edges="1160199981#0 1160199981#1 963150436 963150434 963150432 964390999"/>
    </vehicle>
    <vehicle id="169" depart="121.68">
        <route edges="229688371#0 229688371#1 229688371#2 688692772"/>
    </vehicle>
    <vehicle id="170" depart="122.40">
        <route edges="964390929 963150441#0 963150441#1 963150441#2 963150439 22973545#0 22973545#1"/>
    </vehicle>
    <vehicle id="171" depart="123.12">
        <route edges="-22973545#1 -22973545#0 -963150439 963150439 22973545#0 22973545#1"/>
    </vehicle>
    <vehicle id="172" depart="123.84">
        <route edges="229688365#0 229688365#1 963150439 22973545#0 22973545#1 -22973545#1 -22973545#0 -963150439 985563041 963150436 963150434 963150432 964390999"/>
    </vehicle>
    <vehicle id="173" depart="124.56">
        <route edges="964393320#0 964393320#1 964393320#2 964390997 964391619 963150438 688692772"/>
    </vehicle>
    <vehicle id="175" depart="126.00">
        <route edges="964393320#0 964393320#1 964393320#2 964390997 964391619 963150439 22973545#0 22973545#1 -22973545#1 -22973545#0 -963150439 985563041 963150437#0 963150437#1"/>
    </vehicle>
    <vehicle id="176" depart="126.72">
        <route edges="964393320#0 964393320#1 964393320#2 964390997 964391619 963150439 22973545#0 22973545#1"/>
    </vehicle>
    <vehicle id="177" depart="127.44">
        <route edges="964393320#0 964393320#1 964393320#2 964390997 964391619 963150439 22973545#0 22973545#1"/>
    </vehicle>
    <vehicle id="178" depart="128.16">
        <route edges="964393320#0 964393320#1 964393320#2 964390997 964391619 963150438 688692772"/>
    </vehicle>
    <vehicle id="179" depart="128.88">
        <route edges="-22973545#1 -22973545#0 -963150439 963150438 688692772"/>
    </vehicle>
    <vehicle id="181" depart="130.32">
        <route edges="229688729#0 229688729#1 229688729#2 964391618 963150437#0 963150437#1"/>
    </vehicle>
    <vehicle id="183" depart="131.76">
        <route edges="229688365#0 229688365#1 963150439 22973545#0 22973545#1 -22973545#1 -22973545#0 -963150439 985563041 963150437#0 963150437#1"/>
    </vehicle>
    <vehicle id="184" depart="132.48">
        <route edges="-22973545#1 -22973545#0 -963150439 985563041 963150436 963150434 963150432 964390999"/>
    </vehicle>
    <vehicle id="185" depart="133.20">
        <route edges="229688729#0 229688729#1 229688729#2 964391618 963150437#0 963150437#1"/>
    </vehicle>
    <vehicle id="187" depart="134.64">
        <route edges="229688365#0 229688365#1 963150439 22973545#0 22973545#1"/>
    </vehicle>
    <vehicle id="189" depart="136.08">
        <route edges="229688365#0 229688365#1 963150439 22973545#0 22973545#1 -22973545#1 -22973545#0 -963150439 985563041 963150436 963150434 963150432 964390999"/>
    </vehicle>
    <vehicle id="191" depart="137.52">
        <route edges="229688365#0 229688365#1 963150439 22973545#0 22973545#1 -22973545#1 -22973545#0 -963150439 963150438 688692772"/>
    </vehicle>
    <vehicle id="192" depart="138.24">
        <route edges="229688371#0 229688371#1 229688371#2 688692772"/>
    </vehicle>
    <vehicle id="194" depart="139.68">
        <route edges="964393320#0 964393320#1 964393320#2 964390997 964391619 963150439 22973545#0 22973545#1 -22973545#1 -22973545#0 -963150439 985563041 963150437#0 963150437#1"/>
    </vehicle>
    <vehicle id="195" depart="140.40">
        <route edges="964393320#0 964393320#1 964393320#2 964390997 964391619 963150439 22973545#0 22973545#1 -22973545#1 -22973545#0 -963150439 985563041 963150437#0 963150437#1"/>
    </vehicle>
    <vehicle id="196" depart="141.12">
        <route edges="229688365#0 229688365#1 963150439 22973545#0 22973545#1 -22973545#1 -22973545#0 -963150439 985563041 963150437#0 963150437#1"/>
    </vehicle>
    <vehicle id="197" depart="141.84">
        <route edges="-22973545#1 -22973545#0 -963150439 963150438 688692772"/>
    </vehicle>
    <vehicle id="202" depart="145.44">
        <route edges="964390929 963150441#0 963150441#1 963150441#2 963150439 22973545#0 22973545#1"/>
    </vehicle>
    <vehicle id="203" depart="146.16">
        <route edges="-22973545#1 -22973545#0 -963150439 985563041 963150437#0 963150437#1"/>
    </vehicle>
    <vehicle id="205" depart="147.60">
        <route edges="964390929 963150441#0 963150441#1 963150441#2 985563041 963150436 963150434 963150432 964390999"/>
    </vehicle>
    <vehicle id="209" depart="150.48">
        <route edges="964390929 963150441#0 963150441#1 963150441#2 963150439 22973545#0 22973545#1"/>
    </vehicle>
    <vehicle id="211" depart="151.92">
        <route edges="1160199981#0 1160199981#1 963150437#0 963150437#1"/>
    </vehicle>
    <vehicle id="214" depart="154.08">
        <route edges="964390929 963150441#0 963150441#1 963150441#2 985563041 963150436 963150434 963150432 964390999"/>
    </vehicle>
    <vehicle id="215" depart="154.80">
        <route edges="-22973545#1 -22973545#0 -963150439 963150438 688692772"/>
    </vehicle>
    <vehicle id="216" depart="155.52">
        <route edges="1160199981#0 1160199981#1 963150436 963150434 963150432 964390999"/>
    </vehicle>
    <vehicle id="218" depart="156.96">
        <route edges="1160199981#0 1160199981#1 963150436 963150434 963150432 964390999"/>
    </vehicle>
    <vehicle id="220" depart="158.40">
        <route edges="963150431#0 963150431#1 963150432 964390999"/>
    </vehicle>
    <vehicle id="222" depart="159.84">
        <route edges="964393320#0 964393320#1 964393320#2 964390997 964391619 963150439 22973545#0 22973545#1 -22973545#1 -22973545#0 -963150439 985563041 963150437#0 963150437#1"/>
    </vehicle>
    <vehicle id="224" depart="161.28">
        <route edges="964390929 963150441#0 963150441#1 963150441#2 985563041 963150437#0 963150437#1"/>
    </vehicle>
    <vehicle id="225" depart="162.00">
        <route edges="964393320#0 964393320#1 964393320#2 964390997 964391619 963150439 22973545#0 22973545#1 -22973545#1 -22973545#0 -963150439 985563041 963150437#0 963150437#1"/>
    </vehicle>
    <vehicle id="226" depart="162.72">
        <route edges="229688371#0 229688371#1 229688371#2 688692772"/>
    </vehicle>
    <vehicle id="227" depart="163.44">
        <route edges="1160199981#0 1160199981#1 963150437#0 963150437#1"/>
    </vehicle>
    <vehicle id="228" depart="164.16">
        <route edges="964390929 963150441#0 963150441#1 963150441#2 985563041 963150437#0 963150437#1"/>
    </vehicle>
    <vehicle id="230" depart="165.60">
        <route edges="-22973545#1 -22973545#0 -963150439 963150438 688692772"/>
    </vehicle>
    <vehicle id="231" depart="166.32">
        <route edges="229688365#0 229688365#1 963150439 22973545#0 22973545#1 -22973545#1 -22973545#0 -963150439 963150438 688692772"/>
    </vehicle>
    <vehicle id="233" depart="167.76">
        <route edges="1160199981#0 1160199981#1 963150437#0 963150437#1"/>
    </vehicle>
    <vehicle id="238" depart="171.36">
        <route edges="229688729#0 229688729#1 229688729#2 964391618 963150437#0 963150437#1"/>
    </vehicle>
    <vehicle id="239" depart="172.08">
        <route edges="964390929 963150441#0 963150441#1 963150441#2 985563041 963150436 963150434 963150432 964390999"/>
    </vehicle>
    <vehicle id="241" depart="173.52">
        <route edges="229688365#0 229688365#1 963150439 22973545#0 22973545#1 -22973545#1 -22973545#0 -963150439 985563041 963150436 963150434 963150432 964390999"/>
    </vehicle>
    <vehicle id="242" depart="174.24">
        <route edges="964390929 963150441#0 963150441#1 963150441#2 985563041 963150436 963150434 963150432 964390999"/>
    </vehicle>
    <vehicle id="244" depart="175.68">
        <route edges="229688729#0 229688729#1 229688729#2 964391618 963150437#0 963150437#1"/>
    </vehicle>
    <vehicle id="247" depart="177.84">
        <route edges="229688365#0 229688365#1 963150439 22973545#0 22973545#1 -22973545#1 -22973545#0 -963150439 985563041 963150437#0 963150437#1"/>
    </vehicle>
    <vehicle id="252" depart="181.44">
        <route edges="-22973545#1 -22973545#0 -963150439 985563041 963150437#0 963150437#1"/>
    </vehicle>
    <vehicle id="254" depart="182.88">
        <route edges="-22973545#1 -22973545#0 -963150439 963150438 688692772"/>
    </vehicle>
    <vehicle id="256" depart="184.32">
        <route edges="964390929 963150441#0 963150441#1 963150441#2 963150438 688692772"/>
    </vehicle>
    <vehicle id="257" depart="185.04">
        <route edges="964390929 963150441#0 963150441#1 963150441#2 985563041 963150436 963150434 963150432 964390999"/>
    </vehicle>
    <vehicle id="258" depart="185.76">
        <route edges="229688365#0 229688365#1 963150439 22973545#0 22973545#1"/>
    </vehicle>
    <vehicle id="259" depart="186.48">
        <route edges="-22973545#1 -22973545#0 -963150439 985563041 963150437#0 963150437#1"/>
    </vehicle>
    <vehicle id="260" depart="187.20">
        <route edges="964393320#0 964393320#1 964393320#2 964390997 964391619 963150438 688692772"/>
    </vehicle>
    <vehicle id="261" depart="187.92">
        <route edges="963150431#0 963150431#1 963150432 964390999"/>
    </vehicle>
    <vehicle id="262" depart="188.64">
        <route edges="963150431#0 963150431#1 963150432 964390999"/>
    </vehicle>
    <vehicle id="263" depart="189.36">
        <route edges="964393320#0 964393320#1 964393320#2 964390997 964391619 963150439 22973545#0 22973545#1"/>
    </vehicle>
    <vehicle id="264" depart="190.08">
        <route edges="-22973545#1 -22973545#0 -963150439 963150439 22973545#0 22973545#1"/>
    </vehicle>
    <vehicle id="265" depart="190.80">
        <route edges="1160199981#0 1160199981#1 963150437#0 963150437#1"/>
    </vehicle>
    <vehicle id="267" depart="192.24">
        <route edges="963150431#0 963150431#1 963150432 964390999"/>
    </vehicle>