<?xml version="1.0" encoding="UTF-8"?>

<!-- generated on 2024-09-03 01:37:12 by Eclipse SUMO netconvert Version 1.20.0
<configuration xmlns:xsi="http://www.w3.org/2001/XMLSchema-instance" xsi:noNamespaceSchemaLocation="http://sumo.dlr.de/xsd/netconvertConfiguration.xsd">

    <input>
        <osm-files value="train_files/intersection/easy/osm_files/map(86).osm"/>
    </input>

    <output>
        <output-file value="train_files/intersection/easy/outputs/map(86)_dict/map(86)/map(86).net.xml"/>
    </output>

    <projection>
        <proj.utm value="true"/>
    </projection>

    <building_defaults>
        <default.junctions.keep-clear value="false"/>
    </building_defaults>

</configuration>
-->

<net version="1.20" junctionCornerDetail="5" limitTurnSpeed="5.50" xmlns:xsi="http://www.w3.org/2001/XMLSchema-instance" xsi:noNamespaceSchemaLocation="http://sumo.dlr.de/xsd/net_file.xsd">

    <location netOffset="-412111.19,-5791649.14" convBoundary="0.00,0.00,1114.65,448.65" origBoundary="7.711935,52.268368,7.728358,52.272284" projParameter="+proj=utm +zone=32 +ellps=WGS84 +datum=WGS84 +units=m +no_defs"/>

    <type id="highway.footway" priority="1" numLanes="1" speed="2.78" allow="pedestrian" oneway="1" width="2.00"/>
    <type id="highway.living_street" priority="2" numLanes="1" speed="2.78" disallow="tram rail_urban rail rail_electric rail_fast ship container cable_car subway aircraft wheelchair scooter drone" oneway="0"/>
    <type id="highway.path" priority="1" numLanes="1" speed="5.56" allow="pedestrian bicycle" oneway="0" width="2.00"/>
    <type id="highway.residential" priority="3" numLanes="1" speed="13.89" disallow="tram rail_urban rail rail_electric rail_fast ship container cable_car subway aircraft wheelchair scooter drone" oneway="0"/>
    <type id="highway.secondary" priority="11" numLanes="1" speed="27.78" disallow="tram rail_urban rail rail_electric rail_fast ship container cable_car subway aircraft wheelchair scooter drone" oneway="0"/>
    <type id="highway.secondary_link" priority="6" numLanes="1" speed="22.22" disallow="tram rail_urban rail rail_electric rail_fast ship container cable_car subway aircraft wheelchair scooter drone" oneway="0"/>
    <type id="highway.service" priority="1" numLanes="1" speed="5.56" allow="pedestrian delivery bicycle" oneway="0"/>

    <edge id=":10730825605_0" function="internal">
        <lane id=":10730825605_0_0" index="0" disallow="tram rail_urban rail rail_electric rail_fast ship container cable_car subway aircraft wheelchair scooter drone" speed="13.89" length="8.01" shape="386.11,413.14 384.81,421.04"/>
    </edge>
    <edge id=":10730825605_1" function="internal">
        <lane id=":10730825605_1_0" index="0" disallow="tram rail_urban rail rail_electric rail_fast ship container cable_car subway aircraft wheelchair scooter drone" speed="13.89" length="8.53" shape="378.50,419.99 378.41,417.49 377.57,415.80 376.74,414.10 376.64,411.59"/>
        <lane id=":10730825605_1_1" index="1" disallow="tram rail_urban rail rail_electric rail_fast ship container cable_car subway aircraft wheelchair scooter drone" speed="13.89" length="8.53" shape="381.65,420.52 381.56,418.01 380.73,416.31 379.89,414.62 379.80,412.11"/>
        <lane id=":10730825605_1_2" index="2" disallow="tram rail_urban rail rail_electric rail_fast ship container cable_car subway aircraft wheelchair scooter drone" speed="13.89" length="8.53" shape="381.65,420.52 382.95,412.62"/>
    </edge>
    <edge id=":1192557132_0" function="internal">
        <lane id=":1192557132_0_0" index="0" disallow="tram rail_urban rail rail_electric rail_fast ship container cable_car subway aircraft wheelchair scooter drone" speed="3.65" length="4.67" shape="1113.94,-1.43 1115.37,-1.25 1116.08,-0.71 1116.08,0.18 1115.36,1.43"/>
    </edge>
    <edge id=":21282641_0" function="internal">
        <lane id=":21282641_0_0" index="0" disallow="tram rail_urban rail rail_electric rail_fast ship container cable_car subway aircraft wheelchair scooter drone" speed="13.89" length="20.62" shape="400.08,374.56 393.56,372.91 388.45,370.98 384.26,369.27 380.49,368.25"/>
    </edge>
    <edge id=":21282641_1" function="internal">
        <lane id=":21282641_1_0" index="0" disallow="tram rail_urban rail rail_electric rail_fast ship container cable_car subway aircraft wheelchair scooter drone" speed="9.30" length="17.81" shape="400.65,371.41 395.74,369.89 392.32,367.40 390.39,363.93 389.95,359.48"/>
    </edge>
    <edge id=":21282641_2" function="internal">
        <lane id=":21282641_2_0" index="0" disallow="tram rail_urban rail rail_electric rail_fast ship container cable_car subway aircraft wheelchair scooter drone" speed="3.65" length="4.67" shape="400.65,371.41 399.61,370.41 399.36,369.55 399.89,368.83 401.22,368.26"/>
    </edge>
    <edge id=":21282641_3" function="internal">
        <lane id=":21282641_3_0" index="0" disallow="tram rail_urban rail rail_electric rail_fast ship container cable_car subway aircraft wheelchair scooter drone" speed="13.89" length="19.60" shape="396.34,359.88 395.37,366.23 393.78,371.08 392.18,375.04 391.16,378.70"/>
    </edge>
    <edge id=":21282641_4" function="internal">
        <lane id=":21282641_4_0" index="0" disallow="tram rail_urban rail rail_electric rail_fast ship container cable_car subway aircraft wheelchair scooter drone" speed="8.65" length="17.68" shape="393.15,359.68 392.12,364.03 389.67,366.91 385.79,368.32 380.49,368.25"/>
    </edge>
    <edge id=":21282641_5" function="internal">
        <lane id=":21282641_5_0" index="0" disallow="tram rail_urban rail rail_electric rail_fast ship container cable_car subway aircraft wheelchair scooter drone" speed="3.65" length="4.67" shape="393.15,359.68 392.27,360.83 391.45,361.18 390.68,360.73 389.95,359.48"/>
    </edge>
    <edge id=":21282641_6" function="internal">
        <lane id=":21282641_6_0" index="0" disallow="tram rail_urban rail rail_electric rail_fast ship container cable_car subway aircraft wheelchair scooter drone" speed="13.89" length="20.93" shape="381.33,361.91 387.93,363.33 393.15,365.24 397.43,367.08 401.22,368.26"/>
    </edge>
    <edge id=":21282641_7" function="internal">
        <lane id=":21282641_7_0" index="0" disallow="tram rail_urban rail rail_electric rail_fast ship container cable_car subway aircraft wheelchair scooter drone" speed="9.26" length="19.46" shape="380.91,365.08 386.02,366.53 389.44,369.28 391.15,373.34 391.16,378.70"/>
    </edge>
    <edge id=":21282641_8" function="internal">
        <lane id=":21282641_8_0" index="0" disallow="tram rail_urban rail rail_electric rail_fast ship container cable_car subway aircraft wheelchair scooter drone" speed="3.65" length="4.67" shape="380.91,365.08 381.99,366.03 382.29,366.88 381.78,367.62 380.49,368.25"/>
    </edge>
    <edge id=":21282641_9" function="internal">
        <lane id=":21282641_9_0" index="0" disallow="tram rail_urban rail rail_electric rail_fast ship container cable_car subway aircraft wheelchair scooter drone" speed="13.89" length="19.09" shape="384.82,377.82 386.13,371.68 387.76,366.98 389.21,363.12 389.95,359.48"/>
    </edge>
    <edge id=":21282641_10" function="internal">
        <lane id=":21282641_10_0" index="0" disallow="tram rail_urban rail rail_electric rail_fast ship container cable_car subway aircraft wheelchair scooter drone" speed="9.06" length="19.08" shape="387.99,378.26 389.45,373.10 392.14,369.71 396.06,368.10 401.22,368.26"/>
    </edge>
    <edge id=":21282641_11" function="internal">
        <lane id=":21282641_11_0" index="0" disallow="tram rail_urban rail rail_electric rail_fast ship container cable_car subway aircraft wheelchair scooter drone" speed="3.65" length="4.67" shape="387.99,378.26 388.95,377.18 389.80,376.89 390.54,377.40 391.16,378.70"/>
    </edge>
    <edge id=":236953759_0" function="internal">
        <lane id=":236953759_0_0" index="0" disallow="tram rail_urban rail rail_electric rail_fast ship container cable_car subway aircraft wheelchair scooter drone" speed="11.60" length="10.84" shape="363.52,371.15 361.02,369.21 359.06,367.87 356.92,367.17 353.87,367.14"/>
    </edge>
    <edge id=":236953759_1" function="internal">
        <lane id=":236953759_1_0" index="0" disallow="tram rail_urban rail rail_electric rail_fast ship container cable_car subway aircraft wheelchair scooter drone" speed="13.89" length="16.57" shape="370.43,367.30 366.44,367.20 362.15,367.05 357.86,366.98 353.87,367.14"/>
    </edge>
    <edge id=":236953759_2" function="internal">
        <lane id=":236953759_2_0" index="0" disallow="tram rail_urban rail rail_electric rail_fast ship container cable_car subway aircraft wheelchair scooter drone" speed="18.05" length="16.79" shape="353.33,360.76 358.76,360.26 362.94,359.64 366.37,358.65 369.53,357.06"/>
    </edge>
    <edge id=":236953759_3" function="internal">
        <lane id=":236953759_3_0" index="0" disallow="tram rail_urban rail rail_electric rail_fast ship container cable_car subway aircraft wheelchair scooter drone" speed="13.89" length="17.01" shape="353.33,360.76 358.41,360.47 361.89,360.54 365.38,360.75 370.47,360.90"/>
        <lane id=":236953759_3_1" index="1" disallow="tram rail_urban rail rail_electric rail_fast ship container cable_car subway aircraft wheelchair scooter drone" speed="13.89" length="17.01" shape="353.60,363.95 358.59,363.67 362.02,363.74 365.45,363.95 370.45,364.10"/>
    </edge>
    <edge id=":236953759_5" function="internal">
        <lane id=":236953759_5_0" index="0" disallow="tram rail_urban rail rail_electric rail_fast ship container cable_car subway aircraft wheelchair scooter drone" speed="3.65" length="1.44" shape="353.60,363.95 354.87,364.65"/>
    </edge>
    <edge id=":236953759_6" function="internal">
        <lane id=":236953759_6_0" index="0" disallow="tram rail_urban rail rail_electric rail_fast ship container cable_car subway aircraft wheelchair scooter drone" speed="3.65" length="3.23" shape="354.87,364.65 355.33,365.41 355.00,366.24 353.87,367.14"/>
    </edge>
    <edge id=":2814511830_0" function="internal">
        <lane id=":2814511830_0_0" index="0" disallow="tram rail_urban rail rail_electric rail_fast ship container cable_car subway aircraft wheelchair scooter drone" speed="13.89" length="0.21" shape="390.70,313.84 390.70,313.77 390.69,313.73 390.69,313.69 390.68,313.63"/>
    </edge>
    <edge id=":2814511830_1" function="internal">
        <lane id=":2814511830_1_0" index="0" disallow="tram rail_urban rail rail_electric rail_fast ship container cable_car subway aircraft wheelchair scooter drone" speed="13.89" length="0.85" shape="397.00,312.61 397.05,312.92 397.07,313.14 397.09,313.35 397.10,313.67"/>
        <lane id=":2814511830_1_1" index="1" disallow="tram rail_urban rail rail_electric rail_fast ship container cable_car subway aircraft wheelchair scooter drone" speed="13.89" length="0.85" shape="393.84,313.12 393.87,313.30 393.88,313.43 393.89,313.56 393.90,313.75"/>
    </edge>
    <edge id=":2814513764_0" function="internal">
        <lane id=":2814513764_0_0" index="0" disallow="tram rail_urban rail rail_electric rail_fast ship container cable_car subway aircraft wheelchair scooter drone" speed="15.57" length="9.47" shape="392.95,392.93 391.13,395.09 389.77,396.57 388.79,398.20 388.11,400.85"/>
    </edge>
    <edge id=":2814513764_1" function="internal">
        <lane id=":2814513764_1_0" index="0" disallow="tram rail_urban rail rail_electric rail_fast ship container cable_car subway aircraft wheelchair scooter drone" speed="13.89" length="13.52" shape="389.95,387.46 388.11,400.85"/>
    </edge>
    <edge id=":2814513764_2" function="internal">
        <lane id=":2814513764_2_0" index="0" disallow="tram rail_urban rail rail_electric rail_fast ship container cable_car subway aircraft wheelchair scooter drone" speed="11.38" length="12.64" shape="378.64,399.31 379.39,394.29 379.78,390.53 379.84,388.02 379.54,386.78"/>
    </edge>
    <edge id=":2814513764_3" function="internal">
        <lane id=":2814513764_3_0" index="0" disallow="tram rail_urban rail rail_electric rail_fast ship container cable_car subway aircraft wheelchair scooter drone" speed="13.89" length="13.81" shape="378.64,399.31 379.75,395.43 381.18,392.95 382.59,390.47 383.61,386.57"/>
        <lane id=":2814513764_3_1" index="1" disallow="tram rail_urban rail rail_electric rail_fast ship container cable_car subway aircraft wheelchair scooter drone" speed="13.89" length="13.81" shape="381.80,399.82 382.91,395.92 384.35,393.43 385.76,390.93 386.78,387.02"/>
    </edge>
    <edge id=":2814513764_5" function="internal">
        <lane id=":2814513764_5_0" index="0" disallow="tram rail_urban rail rail_electric rail_fast ship container cable_car subway aircraft wheelchair scooter drone" speed="3.65" length="1.44" shape="384.96,400.34 385.94,399.28"/>
    </edge>
    <edge id=":2814513764_6" function="internal">
        <lane id=":2814513764_6_0" index="0" disallow="tram rail_urban rail rail_electric rail_fast ship container cable_car subway aircraft wheelchair scooter drone" speed="3.65" length="3.23" shape="385.94,399.28 386.79,399.02 387.52,399.54 388.11,400.85"/>
    </edge>
    <edge id=":2814515151_0" function="internal">
        <lane id=":2814515151_0_0" index="0" disallow="tram rail_urban rail rail_electric rail_fast ship container cable_car subway aircraft wheelchair scooter drone" speed="3.65" length="4.67" shape="380.44,448.89 379.47,449.96 378.62,450.23 377.89,449.72 377.28,448.41"/>
    </edge>
    <edge id=":291880747_0" function="internal">
        <lane id=":291880747_0_0" index="0" disallow="tram rail_urban rail rail_electric rail_fast ship container cable_car subway aircraft wheelchair scooter drone" speed="18.05" length="32.77" shape="450.38,376.50 418.02,381.67"/>
    </edge>
    <edge id=":291880747_1" function="internal">
        <lane id=":291880747_1_0" index="0" disallow="tram rail_urban rail rail_electric rail_fast ship container cable_car subway aircraft wheelchair scooter drone" speed="13.89" length="30.93" shape="450.38,376.50 444.86,377.20 436.79,378.02 427.78,378.50 419.45,378.20"/>
        <lane id=":291880747_1_1" index="1" disallow="tram rail_urban rail rail_electric rail_fast ship container cable_car subway aircraft wheelchair scooter drone" speed="13.89" length="30.93" shape="450.38,376.50 444.88,376.70 436.87,376.42 427.92,375.80 419.61,375.00"/>
    </edge>
    <edge id=":291880747_3" function="internal">
        <lane id=":291880747_3_0" index="0" disallow="tram rail_urban rail rail_electric rail_fast ship container cable_car subway aircraft wheelchair scooter drone" speed="3.65" length="1.44" shape="450.38,376.50 449.08,375.86"/>
    </edge>
    <edge id=":291880747_6" function="internal">
        <lane id=":291880747_6_0" index="0" disallow="tram rail_urban rail rail_electric rail_fast ship container cable_car subway aircraft wheelchair scooter drone" speed="3.65" length="3.23" shape="449.08,375.86 448.58,375.13 448.87,374.28 449.95,373.32"/>
    </edge>
    <edge id=":291880747_4" function="internal">
        <lane id=":291880747_4_0" index="0" disallow="tram rail_urban rail rail_electric rail_fast ship container cable_car subway aircraft wheelchair scooter drone" speed="13.89" length="30.24" shape="419.77,371.80 425.89,372.37 434.87,373.02 443.84,373.45 449.95,373.32"/>
    </edge>
    <edge id=":291880747_5" function="internal">
        <lane id=":291880747_5_0" index="0" disallow="tram rail_urban rail rail_electric rail_fast ship container cable_car subway aircraft wheelchair scooter drone" speed="3.65" length="1.44" shape="419.77,371.80 420.93,372.66"/>
    </edge>
    <edge id=":291880747_7" function="internal">
        <lane id=":291880747_7_0" index="0" disallow="tram rail_urban rail rail_electric rail_fast ship container cable_car subway aircraft wheelchair scooter drone" speed="3.65" length="3.24" shape="420.93,372.66 421.29,373.48 420.85,374.26 419.61,375.00"/>
    </edge>
    <edge id=":291880758_0" function="internal">
        <lane id=":291880758_0_0" index="0" disallow="tram rail_urban rail rail_electric rail_fast ship container cable_car subway aircraft wheelchair scooter drone" speed="13.89" length="10.08" shape="475.88,369.67 473.15,370.86 471.23,371.61 469.27,372.25 466.41,373.07"/>
    </edge>
    <edge id=":291880758_1" function="internal">
        <lane id=":291880758_1_0" index="0" allow="pedestrian delivery bicycle" speed="6.93" length="3.26" shape="475.88,369.67 473.16,370.42 472.73,370.35"/>
    </edge>
    <edge id=":291880758_7" function="internal">
        <lane id=":291880758_7_0" index="0" allow="pedestrian delivery bicycle" speed="6.93" length="7.28" shape="472.73,370.35 470.84,370.06 468.93,368.60 467.43,366.04"/>
    </edge>
    <edge id=":291880758_2" function="internal">
        <lane id=":291880758_2_0" index="0" allow="pedestrian delivery bicycle" speed="5.13" length="5.30" shape="470.39,364.81 471.15,366.13 472.10,366.89 473.25,367.10 474.59,366.75"/>
    </edge>
    <edge id=":291880758_3" function="internal">
        <lane id=":291880758_3_0" index="0" allow="pedestrian delivery bicycle" speed="6.77" length="10.76" shape="470.39,364.81 471.13,367.71 470.72,370.06 469.14,371.84 466.41,373.07"/>
    </edge>
    <edge id=":291880758_4" function="internal">
        <lane id=":291880758_4_0" index="0" allow="pedestrian delivery bicycle" speed="3.65" length="4.67" shape="470.39,364.81 470.11,366.22 469.53,366.90 468.63,366.84 467.43,366.04"/>
    </edge>
    <edge id=":291880758_5" function="internal">
        <lane id=":291880758_5_0" index="0" allow="pedestrian delivery bicycle" speed="4.92" length="5.15" shape="465.53,369.99 466.84,369.41 467.59,368.55 467.79,367.43 467.43,366.04"/>
    </edge>
    <edge id=":291880758_6" function="internal">
        <lane id=":291880758_6_0" index="0" disallow="tram rail_urban rail rail_electric rail_fast ship container cable_car subway aircraft wheelchair scooter drone" speed="13.89" length="9.64" shape="465.53,369.99 468.28,369.20 470.14,368.60 471.97,367.89 474.59,366.75"/>
    </edge>
    <edge id=":3198482164_0" function="internal">
        <lane id=":3198482164_0_0" index="0" disallow="tram rail_urban rail rail_electric rail_fast ship container cable_car subway aircraft wheelchair scooter drone" speed="3.65" length="4.67" shape="387.12,291.51 387.72,290.20 388.45,289.68 389.30,289.95 390.28,291.01"/>
    </edge>
    <edge id=":410236782_0" function="internal">
        <lane id=":410236782_0_0" index="0" allow="pedestrian bicycle" speed="4.17" length="2.48" width="2.00" shape="370.49,339.21 369.78,339.19 369.28,339.33 368.79,339.49 368.06,339.53"/>
    </edge>
    <edge id=":410236782_1" function="internal">
        <lane id=":410236782_1_0" index="0" allow="pedestrian bicycle" speed="4.17" length="2.73" width="2.00" shape="368.27,336.34 369.05,336.49 369.55,336.74 370.05,337.01 370.82,337.24"/>
    </edge>
    <edge id=":410236782_2" function="internal">
        <lane id=":410236782_2_0" index="0" disallow="tram rail_urban rail rail_electric rail_fast ship container cable_car subway aircraft wheelchair scooter drone" speed="2.78" length="1.26" shape="368.27,336.34 369.26,337.10"/>
    </edge>
    <edge id=":410236782_3" function="internal">
        <lane id=":410236782_3_0" index="0" disallow="tram rail_urban rail rail_electric rail_fast ship container cable_car subway aircraft wheelchair scooter drone" speed="2.78" length="3.42" shape="369.26,337.10 369.41,337.22 369.76,338.04 369.31,338.81 368.06,339.53"/>
    </edge>
    <edge id=":410236795_0" function="internal">
        <lane id=":410236795_0_0" index="0" disallow="tram rail_urban rail rail_electric rail_fast ship container cable_car subway aircraft wheelchair scooter drone" speed="2.78" length="4.67" shape="0.78,354.60 -0.66,354.49 -1.40,353.99 -1.44,353.10 -0.78,351.81"/>
    </edge>
    <edge id=":6596040699_0" function="internal">
        <lane id=":6596040699_0_0" index="0" disallow="tram rail_urban rail rail_electric rail_fast ship container cable_car subway aircraft wheelchair scooter drone" speed="13.89" length="0.30" shape="1101.39,8.37 1101.12,8.50"/>
    </edge>
    <edge id=":6596040699_1" function="internal">
        <lane id=":6596040699_1_0" index="0" disallow="tram rail_urban rail rail_electric rail_fast ship container cable_car subway aircraft wheelchair scooter drone" speed="13.89" length="0.30" shape="1099.70,5.63 1099.97,5.50"/>
    </edge>
    <edge id=":7018242324_0" function="internal">
        <lane id=":7018242324_0_0" index="0" disallow="tram rail_urban rail rail_electric rail_fast ship container cable_car subway aircraft wheelchair scooter drone" speed="3.65" length="4.67" shape="295.56,383.09 294.15,382.79 293.49,382.19 293.57,381.30 294.39,380.11"/>
    </edge>
    <edge id=":7018268895_0" function="internal">
        <lane id=":7018268895_0_0" index="0" disallow="tram rail_urban rail rail_electric rail_fast ship container cable_car subway aircraft wheelchair scooter drone" speed="13.89" length="7.06" shape="419.25,378.18 412.22,376.90"/>
        <lane id=":7018268895_0_1" index="1" disallow="tram rail_urban rail rail_electric rail_fast ship container cable_car subway aircraft wheelchair scooter drone" speed="13.89" length="7.06" shape="419.41,374.98 412.57,373.71"/>
    </edge>
    <edge id=":7018268895_2" function="internal">
        <lane id=":7018268895_2_0" index="0" disallow="tram rail_urban rail rail_electric rail_fast ship container cable_car subway aircraft wheelchair scooter drone" speed="3.65" length="1.44" shape="419.41,374.98 418.25,374.12"/>
    </edge>
    <edge id=":7018268895_5" function="internal">
        <lane id=":7018268895_5_0" index="0" disallow="tram rail_urban rail rail_electric rail_fast ship container cable_car subway aircraft wheelchair scooter drone" speed="3.65" length="3.24" shape="418.25,374.12 417.89,373.30 418.33,372.52 419.58,371.78"/>
    </edge>
    <edge id=":7018268895_3" function="internal">
        <lane id=":7018268895_3_0" index="0" disallow="tram rail_urban rail rail_electric rail_fast ship container cable_car subway aircraft wheelchair scooter drone" speed="11.53" length="7.26" shape="414.45,367.05 415.90,368.66 416.73,370.10 417.69,371.19 419.58,371.78"/>
    </edge>
    <edge id=":7018268895_4" function="internal">
        <lane id=":7018268895_4_0" index="0" disallow="tram rail_urban rail rail_electric rail_fast ship container cable_car subway aircraft wheelchair scooter drone" speed="13.89" length="6.78" shape="412.91,370.51 419.58,371.78"/>
    </edge>
    <edge id=":7018268902_0" function="internal">
        <lane id=":7018268902_0_0" index="0" disallow="tram rail_urban rail rail_electric rail_fast ship container cable_car subway aircraft wheelchair scooter drone" speed="18.05" length="20.19" shape="397.55,330.73 397.83,337.42 398.40,342.71 399.39,346.95 400.94,350.44"/>
    </edge>
    <edge id=":7018268902_1" function="internal">
        <lane id=":7018268902_1_0" index="0" disallow="tram rail_urban rail rail_electric rail_fast ship container cable_car subway aircraft wheelchair scooter drone" speed="13.89" length="20.30" shape="397.55,330.73 397.64,336.72 397.55,340.90 397.29,345.08 396.89,351.06"/>
        <lane id=":7018268902_1_1" index="1" disallow="tram rail_urban rail rail_electric rail_fast ship container cable_car subway aircraft wheelchair scooter drone" speed="13.89" length="20.30" shape="394.35,330.81 394.44,336.78 394.35,340.93 394.09,345.06 393.68,351.03"/>
    </edge>
    <edge id=":7018268902_3" function="internal">
        <lane id=":7018268902_3_0" index="0" disallow="tram rail_urban rail rail_electric rail_fast ship container cable_car subway aircraft wheelchair scooter drone" speed="3.65" length="1.44" shape="394.35,330.81 393.58,332.03"/>
    </edge>
    <edge id=":7018268902_6" function="internal">
        <lane id=":7018268902_6_0" index="0" disallow="tram rail_urban rail rail_electric rail_fast ship container cable_car subway aircraft wheelchair scooter drone" speed="3.65" length="3.23" shape="393.58,332.03 392.79,332.45 391.98,332.08 391.15,330.90"/>
    </edge>
    <edge id=":7018268902_4" function="internal">
        <lane id=":7018268902_4_0" index="0" disallow="tram rail_urban rail rail_electric rail_fast ship container cable_car subway aircraft wheelchair scooter drone" speed="14.10" length="9.50" shape="387.55,339.44 389.08,337.05 390.24,335.39 390.95,333.62 391.15,330.90"/>
    </edge>
    <edge id=":7018268902_5" function="internal">
        <lane id=":7018268902_5_0" index="0" disallow="tram rail_urban rail rail_electric rail_fast ship container cable_car subway aircraft wheelchair scooter drone" speed="13.89" length="20.12" shape="390.48,351.00 390.73,346.46 390.98,340.95 391.14,335.44 391.15,330.90"/>
    </edge>
    <edge id=":7018268903_0" function="internal">
        <lane id=":7018268903_0_0" index="0" allow="pedestrian bicycle" speed="5.09" length="4.81" width="2.00" shape="382.99,339.89 384.62,340.35 385.91,340.46 386.86,340.21 387.46,339.62"/>
    </edge>
    <edge id=":7018268903_1" function="internal">
        <lane id=":7018268903_1_0" index="0" allow="pedestrian bicycle" speed="2.89" length="2.92" width="2.00" shape="382.99,339.89 383.53,340.61 383.60,341.16 383.20,341.55 382.32,341.77"/>
    </edge>
    <edge id=":7018268903_2" function="internal">
        <lane id=":7018268903_2_0" index="0" allow="pedestrian bicycle" speed="4.60" length="4.76" width="2.00" shape="383.90,345.35 384.41,344.21 384.32,343.23 383.63,342.42 382.32,341.77"/>
    </edge>
    <edge id=":7018268903_3" function="internal">
        <lane id=":7018268903_3_0" index="0" disallow="tram rail_urban rail rail_electric rail_fast ship container cable_car subway aircraft wheelchair scooter drone" speed="22.22" length="6.75" shape="383.90,345.35 385.02,343.69 385.77,342.54 386.48,341.37 387.46,339.62"/>
    </edge>
    <edge id=":7124471437_0" function="internal">
        <lane id=":7124471437_0_0" index="0" disallow="tram rail_urban rail rail_electric rail_fast ship container cable_car subway aircraft wheelchair scooter drone" speed="22.22" length="0.30" shape="376.11,382.32 375.92,382.08"/>
    </edge>
    <edge id=":8252886940_0" function="internal">
        <lane id=":8252886940_0_0" index="0" allow="pedestrian delivery bicycle" speed="3.65" length="4.67" shape="329.02,353.73 328.20,354.92 327.39,355.30 326.60,354.89 325.82,353.67"/>
    </edge>
    <edge id=":8252886941_0" function="internal">
        <lane id=":8252886941_0_0" index="0" allow="pedestrian delivery bicycle" speed="4.17" length="5.18" shape="332.69,334.45 331.24,334.42 330.19,334.88 329.55,335.82 329.32,337.26"/>
    </edge>
    <edge id=":8252886941_1" function="internal">
        <lane id=":8252886941_1_0" index="0" disallow="tram rail_urban rail rail_electric rail_fast ship container cable_car subway aircraft wheelchair scooter drone" speed="2.78" length="9.40" shape="332.69,334.45 323.45,332.69"/>
    </edge>
    <edge id=":8252886941_2" function="internal">
        <lane id=":8252886941_2_0" index="0" disallow="tram rail_urban rail rail_electric rail_fast ship container cable_car subway aircraft wheelchair scooter drone" speed="2.78" length="9.23" shape="324.14,329.57 333.21,331.30"/>
    </edge>
    <edge id=":8252886941_3" function="internal">
        <lane id=":8252886941_3_0" index="0" allow="pedestrian delivery bicycle" speed="4.17" length="2.81" shape="324.14,329.57 326.45,330.49 326.68,330.72"/>
    </edge>
    <edge id=":8252886941_7" function="internal">
        <lane id=":8252886941_7_0" index="0" allow="pedestrian delivery bicycle" speed="4.17" length="7.34" shape="326.68,330.72 328.08,332.08 329.04,334.33 329.32,337.26"/>
    </edge>
    <edge id=":8252886941_4" function="internal">
        <lane id=":8252886941_4_0" index="0" allow="pedestrian delivery bicycle" speed="4.17" length="5.72" shape="326.12,337.20 325.98,335.46 325.49,334.12 324.64,333.20 323.45,332.69"/>
    </edge>
    <edge id=":8252886941_5" function="internal">
        <lane id=":8252886941_5_0" index="0" allow="pedestrian delivery bicycle" speed="4.17" length="10.91" shape="326.12,337.20 326.61,334.18 327.96,332.20 330.16,331.23 333.21,331.30"/>
    </edge>
    <edge id=":8252886941_6" function="internal">
        <lane id=":8252886941_6_0" index="0" allow="pedestrian delivery bicycle" speed="3.65" length="4.67" shape="326.12,337.20 326.94,336.01 327.75,335.63 328.54,336.04 329.32,337.26"/>
    </edge>
    <edge id=":9434841851_0" function="internal">
        <lane id=":9434841851_0_0" index="0" allow="pedestrian delivery bicycle" speed="3.65" length="4.67" shape="457.40,341.97 457.68,340.55 458.26,339.87 459.16,339.94 460.36,340.74"/>
    </edge>
    <edge id=":9434841853_0" function="internal">
        <lane id=":9434841853_0_0" index="0" disallow="tram rail_urban rail rail_electric rail_fast ship container cable_car subway aircraft wheelchair scooter drone" speed="3.65" length="4.67" shape="347.08,342.57 346.24,343.74 345.43,344.11 344.64,343.69 343.89,342.46"/>
    </edge>
    <edge id=":9434841854_0" function="internal">
        <lane id=":9434841854_0_0" index="0" disallow="tram rail_urban rail rail_electric rail_fast ship container cable_car subway aircraft wheelchair scooter drone" speed="6.12" length="8.75" shape="353.05,337.99 350.52,337.86 348.68,338.55 347.54,340.05 347.09,342.37"/>
    </edge>
    <edge id=":9434841854_1" function="internal">
        <lane id=":9434841854_1_0" index="0" disallow="tram rail_urban rail rail_electric rail_fast ship container cable_car subway aircraft wheelchair scooter drone" speed="2.78" length="14.50" shape="353.05,337.99 338.78,335.46"/>
    </edge>
    <edge id=":9434841854_2" function="internal">