<?xml version="1.0" encoding="UTF-8"?>

<!-- generated on 2024-09-03 01:38:11 by Eclipse SUMO netconvert Version 1.20.0
<configuration xmlns:xsi="http://www.w3.org/2001/XMLSchema-instance" xsi:noNamespaceSchemaLocation="http://sumo.dlr.de/xsd/netconvertConfiguration.xsd">

    <input>
        <osm-files value="train_files/intersection/middle/osm_files/map(80).osm"/>
    </input>

    <output>
        <output-file value="train_files/intersection/middle/outputs/map(80)_dict/map(80)/map(80).net.xml"/>
    </output>

    <projection>
        <proj.utm value="true"/>
    </projection>

    <building_defaults>
        <default.junctions.keep-clear value="false"/>
    </building_defaults>

</configuration>
-->

<net version="1.20" junctionCornerDetail="5" limitTurnSpeed="5.50" xmlns:xsi="http://www.w3.org/2001/XMLSchema-instance" xsi:noNamespaceSchemaLocation="http://sumo.dlr.de/xsd/net_file.xsd">

    <location netOffset="-578558.90,-5625662.72" convBoundary="0.00,0.00,422.11,148.39" origBoundary="4.114271,50.777352,4.120260,50.778681" projParameter="+proj=utm +zone=31 +ellps=WGS84 +datum=WGS84 +units=m +no_defs"/>

    <type id="highway.cycleway" priority="1" numLanes="1" speed="5.56" allow="bicycle" oneway="0" width="2.00"/>
    <type id="highway.footway" priority="1" numLanes="1" speed="2.78" allow="pedestrian" oneway="1" width="2.00"/>
    <type id="highway.primary" priority="12" numLanes="2" speed="27.78" disallow="tram rail_urban rail rail_electric rail_fast ship container cable_car subway aircraft wheelchair scooter drone" oneway="0"/>
    <type id="highway.secondary" priority="11" numLanes="1" speed="27.78" disallow="tram rail_urban rail rail_electric rail_fast ship container cable_car subway aircraft wheelchair scooter drone" oneway="0"/>
    <type id="highway.track" priority="1" numLanes="1" speed="5.56" allow="pedestrian motorcycle moped bicycle" oneway="0"/>

    <edge id=":1387902947_0" function="internal">
        <lane id=":1387902947_0_0" index="0" disallow="tram rail_urban rail rail_electric rail_fast ship container cable_car subway aircraft wheelchair scooter drone" speed="3.53" length="4.38" width="3.00" shape="0.19,108.60 -1.02,108.00 -1.49,107.30 -1.21,106.51 -0.19,105.63"/>
    </edge>
    <edge id=":1664198077_0" function="internal">
        <lane id=":1664198077_0_0" index="0" disallow="tram rail_urban rail rail_electric rail_fast ship container cable_car subway aircraft wheelchair scooter drone" speed="13.89" length="5.00" shape="398.75,42.72 394.74,45.72"/>
        <lane id=":1664198077_0_1" index="1" disallow="tram rail_urban rail rail_electric rail_fast ship container cable_car subway aircraft wheelchair scooter drone" speed="13.89" length="5.00" shape="396.83,40.16 392.82,43.16"/>
    </edge>
    <edge id=":1664198077_2" function="internal">
        <lane id=":1664198077_2_0" index="0" disallow="tram rail_urban rail rail_electric rail_fast ship container cable_car subway aircraft wheelchair scooter drone" speed="13.89" length="5.00" shape="390.91,40.59 394.91,37.60"/>
    </edge>
    <edge id=":2357991486_0" function="internal">
        <lane id=":2357991486_0_0" index="0" allow="bicycle" speed="9.72" length="9.20" width="2.00" shape="337.77,44.27 338.68,46.83 339.56,48.53 340.91,49.86 343.18,51.26"/>
    </edge>
    <edge id=":2357991486_1" function="internal">
        <lane id=":2357991486_1_0" index="0" disallow="tram rail_urban rail rail_electric rail_fast ship container cable_car subway aircraft wheelchair scooter drone" speed="13.89" length="9.50" shape="337.21,44.46 340.40,53.37"/>
        <lane id=":2357991486_1_1" index="1" disallow="tram rail_urban rail rail_electric rail_fast ship container cable_car subway aircraft wheelchair scooter drone" speed="13.89" length="9.50" shape="334.18,45.50 337.40,54.47"/>
    </edge>
    <edge id=":2357991486_3" function="internal">
        <lane id=":2357991486_3_0" index="0" allow="bicycle" speed="5.56" length="12.47" width="2.00" shape="331.42,47.73 334.75,47.90 337.53,48.56 340.20,49.68 343.18,51.26"/>
    </edge>
    <edge id=":2357991486_4" function="internal">
        <lane id=":2357991486_4_0" index="0" allow="bicycle" speed="7.63" length="9.85" width="2.00" shape="331.42,47.73 333.37,48.11 335.11,49.33 336.64,51.38 337.96,54.27"/>
    </edge>
    <edge id=":2357991487_0" function="internal">
        <lane id=":2357991487_0_0" index="0" disallow="tram rail_urban rail rail_electric rail_fast ship container cable_car subway aircraft wheelchair scooter drone" speed="13.89" length="6.76" shape="327.94,52.16 327.30,50.26 326.99,48.92 326.80,47.56 326.52,45.57"/>
    </edge>
    <edge id=":2357991487_1" function="internal">
        <lane id=":2357991487_1_0" index="0" allow="bicycle" speed="4.81" length="5.60" width="2.00" shape="328.50,51.95 328.03,50.14 328.16,48.83 328.88,48.04 330.20,47.76"/>
    </edge>
    <edge id=":2357991487_2" function="internal">
        <lane id=":2357991487_2_0" index="0" allow="bicycle" speed="8.75" length="6.57" width="2.00" shape="324.25,51.74 325.32,50.13 325.94,48.89 326.12,47.56 325.93,45.66"/>
    </edge>
    <edge id=":2357991487_3" function="internal">
        <lane id=":2357991487_3_0" index="0" allow="bicycle" speed="5.56" length="7.44" width="2.00" shape="324.25,51.74 325.61,50.02 327.05,48.78 328.58,48.03 330.20,47.76"/>
    </edge>
    <edge id=":2357991496_0" function="internal">
        <lane id=":2357991496_0_0" index="0" disallow="tram rail_urban rail rail_electric rail_fast ship container cable_car subway aircraft wheelchair scooter drone" speed="7.23" length="9.68" width="2.00" shape="333.22,71.13 332.00,68.72 330.36,67.11 328.30,66.31 325.82,66.31"/>
    </edge>
    <edge id=":2357991496_1" function="internal">
        <lane id=":2357991496_1_0" index="0" disallow="tram rail_urban rail rail_electric rail_fast ship container cable_car subway aircraft wheelchair scooter drone" speed="13.89" length="15.19" shape="333.22,71.13 331.80,66.48 331.06,62.85 330.48,59.68 329.52,56.41"/>
    </edge>
    <edge id=":2357991496_2" function="internal">
        <lane id=":2357991496_2_0" index="0" disallow="tram rail_urban rail rail_electric rail_fast ship container cable_car subway aircraft wheelchair scooter drone" speed="5.91" length="8.37" width="2.00" shape="336.23,70.05 335.33,66.98 335.14,64.72 335.65,63.27 336.86,62.63"/>
    </edge>
    <edge id=":2357991496_3" function="internal">
        <lane id=":2357991496_3_0" index="0" disallow="tram rail_urban rail rail_electric rail_fast ship container cable_car subway aircraft wheelchair scooter drone" speed="13.89" length="11.46" width="2.00" shape="337.16,64.61 325.82,66.31"/>
    </edge>
    <edge id=":2357991496_4" function="internal">
        <lane id=":2357991496_4_0" index="0" disallow="tram rail_urban rail rail_electric rail_fast ship container cable_car subway aircraft wheelchair scooter drone" speed="7.91" length="0.49" shape="337.16,64.61 336.67,64.55"/>
    </edge>
    <edge id=":2357991496_5" function="internal">
        <lane id=":2357991496_5_0" index="0" disallow="tram rail_urban rail rail_electric rail_fast ship container cable_car subway aircraft wheelchair scooter drone" speed="2.89" length="2.39" width="2.00" shape="337.16,64.61 336.34,64.23 336.02,63.77 336.19,63.24 336.47,62.99"/>
    </edge>
    <edge id=":2357991496_10" function="internal">
        <lane id=":2357991496_10_0" index="0" disallow="tram rail_urban rail rail_electric rail_fast ship container cable_car subway aircraft wheelchair scooter drone" speed="7.91" length="11.50" shape="336.67,64.55 335.05,64.34 333.08,62.89 331.24,60.24 329.52,56.41"/>
    </edge>
    <edge id=":2357991496_11" function="internal">
        <lane id=":2357991496_11_0" index="0" disallow="tram rail_urban rail rail_electric rail_fast ship container cable_car subway aircraft wheelchair scooter drone" speed="2.89" length="0.53" width="2.00" shape="336.47,62.99 336.86,62.63"/>
    </edge>
    <edge id=":2357991496_6" function="internal">
        <lane id=":2357991496_6_0" index="0" disallow="tram rail_urban rail rail_electric rail_fast ship container cable_car subway aircraft wheelchair scooter drone" speed="5.89" length="8.80" shape="325.23,62.35 327.81,61.64 329.39,60.41 329.96,58.67 329.52,56.41"/>
    </edge>
    <edge id=":2357991496_7" function="internal">
        <lane id=":2357991496_7_0" index="0" disallow="tram rail_urban rail rail_electric rail_fast ship container cable_car subway aircraft wheelchair scooter drone" speed="13.89" length="11.45" width="2.00" shape="325.23,62.35 336.56,60.66"/>
        <lane id=":2357991496_7_1" index="1" disallow="tram rail_urban rail rail_electric rail_fast ship container cable_car subway aircraft wheelchair scooter drone" speed="13.89" length="11.45" width="2.00" shape="325.53,64.33 336.86,62.63"/>
    </edge>
    <edge id=":2357991496_9" function="internal">
        <lane id=":2357991496_9_0" index="0" disallow="tram rail_urban rail rail_electric rail_fast ship container cable_car subway aircraft wheelchair scooter drone" speed="2.89" length="2.39" width="2.00" shape="325.53,64.33 326.34,64.72 326.67,65.17 326.49,65.70 326.22,65.95"/>
    </edge>
    <edge id=":2357991496_12" function="internal">
        <lane id=":2357991496_12_0" index="0" disallow="tram rail_urban rail rail_electric rail_fast ship container cable_car subway aircraft wheelchair scooter drone" speed="2.89" length="0.53" width="2.00" shape="326.22,65.95 325.82,66.31"/>
    </edge>
    <edge id=":2357991500_0" function="internal">
        <lane id=":2357991500_0_0" index="0" allow="bicycle" speed="8.84" length="6.44" width="2.00" shape="349.40,72.75 348.49,74.41 348.03,75.67 347.98,76.99 348.29,78.84"/>
    </edge>
    <edge id=":2357991500_1" function="internal">
        <lane id=":2357991500_1_0" index="0" allow="bicycle" speed="5.56" length="7.25" width="2.00" shape="349.40,72.75 348.23,74.47 346.93,75.77 345.49,76.66 343.92,77.13"/>
    </edge>
    <edge id=":2357991500_2" function="internal">
        <lane id=":2357991500_2_0" index="0" disallow="tram rail_urban rail rail_electric rail_fast ship container cable_car subway aircraft wheelchair scooter drone" speed="13.89" length="6.43" shape="345.82,72.83 346.49,74.62 346.93,75.85 347.28,77.11 347.71,78.97"/>
    </edge>
    <edge id=":2357991500_3" function="internal">
        <lane id=":2357991500_3_0" index="0" allow="bicycle" speed="4.80" length="5.08" width="2.00" shape="345.26,73.04 345.68,74.67 345.59,75.89 345.01,76.71 343.92,77.13"/>
    </edge>
    <edge id=":2357991502_0" function="internal">
        <lane id=":2357991502_0_0" index="0" allow="bicycle" speed="9.13" length="8.02" width="2.00" shape="336.08,81.14 335.27,79.17 334.16,77.52 332.77,76.17 331.09,75.14"/>
    </edge>
    <edge id=":2357991502_1" function="internal">
        <lane id=":2357991502_1_0" index="0" disallow="tram rail_urban rail rail_electric rail_fast ship container cable_car subway aircraft wheelchair scooter drone" speed="13.89" length="8.56" shape="336.65,80.96 333.87,72.93"/>
        <lane id=":2357991502_1_1" index="1" disallow="tram rail_urban rail rail_electric rail_fast ship container cable_car subway aircraft wheelchair scooter drone" speed="13.89" length="8.56" shape="339.70,80.00 336.88,71.85"/>
    </edge>
    <edge id=":2357991502_3" function="internal">
        <lane id=":2357991502_3_0" index="0" allow="bicycle" speed="5.56" length="11.67" width="2.00" shape="342.27,77.40 339.08,77.69 336.52,77.38 334.04,76.52 331.09,75.14"/>
    </edge>
    <edge id=":2357991502_4" function="internal">
        <lane id=":2357991502_4_0" index="0" allow="bicycle" speed="6.73" length="8.71" width="2.00" shape="342.27,77.40 340.47,77.30 338.88,76.38 337.49,74.63 336.31,72.05"/>
    </edge>
    <edge id=":3237442796_0" function="internal">
        <lane id=":3237442796_0_0" index="0" disallow="tram rail_urban rail rail_electric rail_fast ship container cable_car subway aircraft wheelchair scooter drone" speed="13.89" length="6.08" width="3.00" shape="297.72,70.05 291.78,71.30"/>
    </edge>
    <edge id=":3237442796_1" function="internal">
        <lane id=":3237442796_1_0" index="0" disallow="tram rail_urban rail rail_electric rail_fast ship container cable_car subway aircraft wheelchair scooter drone" speed="13.89" length="6.19" width="2.00" shape="291.40,68.33 293.18,67.86 294.31,67.20 295.44,66.54 297.22,66.08"/>
        <lane id=":3237442796_1_1" index="1" disallow="tram rail_urban rail rail_electric rail_fast ship container cable_car subway aircraft wheelchair scooter drone" speed="13.89" length="6.19" width="2.00" shape="291.40,68.33 297.47,68.06"/>
    </edge>
    <edge id=":3428376408_0" function="internal">
        <lane id=":3428376408_0_0" index="0" allow="bicycle" speed="9.72" length="8.98" width="2.00" shape="358.67,64.23 356.12,64.99 354.36,65.71 352.97,66.89 351.53,69.04"/>
    </edge>
    <edge id=":3428376408_1" function="internal">
        <lane id=":3428376408_1_0" index="0" disallow="tram rail_urban rail rail_electric rail_fast ship container cable_car subway aircraft wheelchair scooter drone" speed="13.89" length="8.94" shape="358.49,63.66 349.80,65.98"/>
        <lane id=":3428376408_1_1" index="1" disallow="tram rail_urban rail rail_electric rail_fast ship container cable_car subway aircraft wheelchair scooter drone" speed="13.89" length="8.94" shape="357.55,60.60 348.96,62.89"/>
    </edge>
    <edge id=":3428376408_3" function="internal">
        <lane id=":3428376408_3_0" index="0" allow="bicycle" speed="7.70" length="5.57" width="2.00" shape="351.14,55.64 352.76,56.44 354.18,56.92 355.40,57.10 356.42,56.97"/>
    </edge>
    <edge id=":3428376408_4" function="internal">
        <lane id=":3428376408_4_0" index="0" allow="bicycle" speed="5.56" length="15.06" width="2.00" shape="351.14,55.64 353.46,57.74 354.30,60.68 353.65,64.44 351.53,69.04"/>
    </edge>
    <edge id=":3428376408_5" function="internal">
        <lane id=":3428376408_5_0" index="0" allow="bicycle" speed="6.13" length="13.60" width="2.00" shape="351.14,55.64 354.52,58.06 355.30,60.17 353.49,61.97 349.10,63.47"/>
    </edge>
    <edge id=":3428376408_6" function="internal">
        <lane id=":3428376408_6_0" index="0" disallow="tram rail_urban rail rail_electric rail_fast ship container cable_car subway aircraft wheelchair scooter drone" speed="13.89" length="8.77" shape="348.12,59.79 356.60,57.54"/>
    </edge>
    <edge id=":3428376408_7" function="internal">
        <lane id=":3428376408_7_0" index="0" allow="bicycle" speed="6.49" length="0.65" width="2.00" shape="348.26,60.38 348.91,60.33"/>
    </edge>
    <edge id=":3428376408_8" function="internal">
        <lane id=":3428376408_8_0" index="0" allow="bicycle" speed="6.49" length="13.47" width="2.00" shape="348.91,60.33 352.03,60.08 353.83,61.42 353.66,64.41 351.53,69.04"/>
    </edge>
    <edge id=":3428376409_0" function="internal">
        <lane id=":3428376409_0_0" index="0" allow="bicycle" speed="9.72" length="6.58" width="2.00" shape="320.05,69.87 318.31,68.94 317.09,68.27 315.80,67.94 313.91,68.01"/>
    </edge>
    <edge id=":3428376409_1" function="internal">
        <lane id=":3428376409_1_0" index="0" allow="bicycle" speed="5.56" length="11.16" width="2.00" shape="320.05,69.87 317.68,68.21 316.60,66.10 316.82,63.56 318.33,60.57"/>
    </edge>
    <edge id=":3428376409_2" function="internal">
        <lane id=":3428376409_2_0" index="0" allow="bicycle" speed="5.01" length="9.31" width="2.00" shape="320.05,69.87 317.23,68.22 316.33,66.88 317.32,65.85 320.23,65.12"/>
    </edge>
    <edge id=":3428376409_3" function="internal">
        <lane id=":3428376409_3_0" index="0" disallow="tram rail_urban rail rail_electric rail_fast ship container cable_car subway aircraft wheelchair scooter drone" speed="13.89" length="6.63" width="2.00" shape="320.48,67.11 313.91,68.01"/>
    </edge>
    <edge id=":3428376409_4" function="internal">
        <lane id=":3428376409_4_0" index="0" allow="bicycle" speed="5.56" length="0.79" width="2.00" shape="320.48,67.11 319.69,67.11"/>
    </edge>
    <edge id=":3428376409_8" function="internal">
        <lane id=":3428376409_8_0" index="0" allow="bicycle" speed="5.56" length="9.68" width="2.00" shape="319.69,67.11 317.62,67.10 316.31,66.01 316.54,63.84 318.33,60.57"/>
    </edge>
    <edge id=":3428376409_5" function="internal">
        <lane id=":3428376409_5_0" index="0" allow="bicycle" speed="7.76" length="6.20" width="2.00" shape="313.41,64.04 314.78,63.69 316.05,63.00 317.23,61.96 318.33,60.57"/>
    </edge>
    <edge id=":3428376409_6" function="internal">
        <lane id=":3428376409_6_0" index="0" disallow="tram rail_urban rail rail_electric rail_fast ship container cable_car subway aircraft wheelchair scooter drone" speed="13.89" length="6.63" width="2.00" shape="313.41,64.04 319.98,63.14"/>
        <lane id=":3428376409_6_1" index="1" disallow="tram rail_urban rail rail_electric rail_fast ship container cable_car subway aircraft wheelchair scooter drone" speed="13.89" length="6.63" width="2.00" shape="313.66,66.03 320.23,65.12"/>
    </edge>
    <edge id=":60610699_0" function="internal">
        <lane id=":60610699_0_0" index="0" disallow="tram rail_urban rail rail_electric rail_fast ship container cable_car subway aircraft wheelchair scooter drone" speed="6.26" length="9.03" shape="349.60,66.02 347.20,66.95 345.76,68.37 345.28,70.29 345.77,72.70"/>
    </edge>
    <edge id=":60610699_1" function="internal">
        <lane id=":60610699_1_0" index="0" disallow="tram rail_urban rail rail_electric rail_fast ship container cable_car subway aircraft wheelchair scooter drone" speed="13.89" length="12.50" width="2.00" shape="349.60,66.02 345.85,66.29 343.08,65.55 340.51,64.69 337.36,64.58"/>
    </edge>
    <edge id=":60610699_2" function="internal">
        <lane id=":60610699_2_0" index="0" disallow="tram rail_urban rail rail_electric rail_fast ship container cable_car subway aircraft wheelchair scooter drone" speed="3.65" length="1.44" shape="348.77,62.93 347.40,62.47"/>
    </edge>
    <edge id=":60610699_9" function="internal">
        <lane id=":60610699_9_0" index="0" disallow="tram rail_urban rail rail_electric rail_fast ship container cable_car subway aircraft wheelchair scooter drone" speed="3.65" length="3.23" shape="347.40,62.47 346.80,61.80 346.98,60.93 347.93,59.84"/>
    </edge>
    <edge id=":60610699_3" function="internal">
        <lane id=":60610699_3_0" index="0" disallow="tram rail_urban rail rail_electric rail_fast ship container cable_car subway aircraft wheelchair scooter drone" speed="7.19" length="10.22" shape="340.66,54.09 342.06,57.03 343.74,58.96 345.69,59.90 347.93,59.84"/>
    </edge>
    <edge id=":60610699_4" function="internal">
        <lane id=":60610699_4_0" index="0" disallow="tram rail_urban rail rail_electric rail_fast ship container cable_car subway aircraft wheelchair scooter drone" speed="13.89" length="19.29" shape="340.66,54.09 345.77,72.70"/>
    </edge>
    <edge id=":60610699_5" function="internal">
        <lane id=":60610699_5_0" index="0" disallow="tram rail_urban rail rail_electric rail_fast ship container cable_car subway aircraft wheelchair scooter drone" speed="6.51" length="10.43" width="2.00" shape="337.66,55.19 338.86,59.10 339.21,61.97 338.71,63.79 337.36,64.58"/>
    </edge>
    <edge id=":60610699_6" function="internal">
        <lane id=":60610699_6_0" index="0" disallow="tram rail_urban rail rail_electric rail_fast ship container cable_car subway aircraft wheelchair scooter drone" speed="13.89" length="11.20" shape="336.76,60.63 347.93,59.84"/>
    </edge>
    <edge id=":60610699_7" function="internal">
        <lane id=":60610699_7_0" index="0" disallow="tram rail_urban rail rail_electric rail_fast ship container cable_car subway aircraft wheelchair scooter drone" speed="8.56" length="0.61" shape="337.06,62.60 337.66,62.70"/>
    </edge>
    <edge id=":60610699_8" function="internal">
        <lane id=":60610699_8_0" index="0" disallow="tram rail_urban rail rail_electric rail_fast ship container cable_car subway aircraft wheelchair scooter drone" speed="2.89" length="2.75" width="2.00" shape="337.06,62.60 337.87,62.99 338.19,63.44 338.02,63.98 337.48,64.47"/>
    </edge>
    <edge id=":60610699_10" function="internal">
        <lane id=":60610699_10_0" index="0" disallow="tram rail_urban rail rail_electric rail_fast ship container cable_car subway aircraft wheelchair scooter drone" speed="8.56" length="13.60" shape="337.66,62.70 339.39,62.97 341.62,64.77 343.74,68.01 345.77,72.70"/>
    </edge>
    <edge id=":60610699_11" function="internal">
        <lane id=":60610699_11_0" index="0" disallow="tram rail_urban rail rail_electric rail_fast ship container cable_car subway aircraft wheelchair scooter drone" speed="2.89" length="0.17" width="2.00" shape="337.48,64.47 337.36,64.58"/>
    </edge>
    <edge id=":60610702_0" function="internal">
        <lane id=":60610702_0_0" index="0" disallow="tram rail_urban rail rail_electric rail_fast ship container cable_car subway aircraft wheelchair scooter drone" speed="3.65" length="4.67" shape="407.62,28.08 409.06,28.00 409.86,28.40 410.01,29.28 409.53,30.64"/>
    </edge>
    <edge id=":8663908111_0" function="internal">
        <lane id=":8663908111_0_0" index="0" disallow="tram rail_urban rail rail_electric rail_fast ship container cable_car subway aircraft wheelchair scooter drone" speed="13.89" length="0.10" width="2.00" shape="312.17,68.23 312.17,68.23"/>
    </edge>
    <edge id=":8663908111_1" function="internal">
        <lane id=":8663908111_1_0" index="0" disallow="tram rail_urban rail rail_electric rail_fast ship container cable_car subway aircraft wheelchair scooter drone" speed="13.89" length="0.10" width="2.00" shape="311.67,64.26 311.67,64.26"/>
        <lane id=":8663908111_1_1" index="1" disallow="tram rail_urban rail rail_electric rail_fast ship container cable_car subway aircraft wheelchair scooter drone" speed="13.89" length="0.10" width="2.00" shape="311.92,66.24 311.92,66.24"/>
    </edge>
    <edge id=":8663908112_0" function="internal">
        <lane id=":8663908112_0_0" index="0" disallow="tram rail_urban rail rail_electric rail_fast ship container cable_car subway aircraft wheelchair scooter drone" speed="13.89" length="0.30" shape="360.46,63.05 360.18,63.13"/>
        <lane id=":8663908112_0_1" index="1" disallow="tram rail_urban rail rail_electric rail_fast ship container cable_car subway aircraft wheelchair scooter drone" speed="13.89" length="0.30" shape="359.52,59.99 359.23,60.08"/>
    </edge>
    <edge id=":8663908112_2" function="internal">
        <lane id=":8663908112_2_0" index="0" disallow="tram rail_urban rail rail_electric rail_fast ship container cable_car subway aircraft wheelchair scooter drone" speed="13.89" length="0.31" shape="358.29,57.02 358.58,56.93"/>
    </edge>
    <edge id=":8663908113_0" function="internal">
        <lane id=":8663908113_0_0" index="0" disallow="tram rail_urban rail rail_electric rail_fast ship container cable_car subway aircraft wheelchair scooter drone" speed="13.89" length="0.47" shape="337.29,44.72 337.14,44.27"/>
        <lane id=":8663908113_0_1" index="1" disallow="tram rail_urban rail rail_electric rail_fast ship container cable_car subway aircraft wheelchair scooter drone" speed="13.89" length="0.47" shape="334.26,45.75 334.11,45.31"/>
    </edge>
    <edge id=":8663908114_0" function="internal">
        <lane id=":8663908114_0_0" index="0" disallow="tram rail_urban rail rail_electric rail_fast ship container cable_car subway aircraft wheelchair scooter drone" speed="13.89" length="0.27" shape="336.63,80.89 336.71,81.15"/>
        <lane id=":8663908114_0_1" index="1" disallow="tram rail_urban rail rail_electric rail_fast ship container cable_car subway aircraft wheelchair scooter drone" speed="13.89" length="0.27" shape="339.68,79.93 339.76,80.19"/>
    </edge>
    <edge id=":8699090133_0" function="internal">
        <lane id=":8699090133_0_0" index="0" allow="pedestrian motorcycle moped bicycle" speed="9.72" length="12.53" shape="311.52,68.31 309.00,69.07 306.69,70.67 304.57,73.14 302.64,76.46"/>
    </edge>
    <edge id=":8699090133_1" function="internal">
        <lane id=":8699090133_1_0" index="0" disallow="tram rail_urban rail rail_electric rail_fast ship container cable_car subway aircraft wheelchair scooter drone" speed="13.89" length="13.70" width="2.00" shape="311.52,68.31 297.92,70.02"/>
    </edge>
    <edge id=":8699090133_2" function="internal">
        <lane id=":8699090133_2_0" index="0" disallow="tram rail_urban rail rail_electric rail_fast ship container cable_car subway aircraft wheelchair scooter drone" speed="2.89" length="2.39" width="2.00" shape="311.52,68.31 310.71,67.91 310.40,67.44 310.58,66.92 310.86,66.67"/>
    </edge>
    <edge id=":8699090133_10" function="internal">
        <lane id=":8699090133_10_0" index="0" disallow="tram rail_urban rail rail_electric rail_fast ship container cable_car subway aircraft wheelchair scooter drone" speed="2.89" length="0.53" width="2.00" shape="310.86,66.67 311.27,66.33"/>
    </edge>
    <edge id=":8699090133_3" function="internal">
        <lane id=":8699090133_3_0" index="0" disallow="tram rail_urban rail rail_electric rail_fast ship container cable_car subway aircraft wheelchair scooter drone" speed="13.89" length="13.70" width="2.00" shape="297.42,66.05 311.02,64.34"/>
        <lane id=":8699090133_3_1" index="1" disallow="tram rail_urban rail rail_electric rail_fast ship container cable_car subway aircraft wheelchair scooter drone" speed="13.89" length="13.70" width="2.00" shape="297.67,68.04 311.27,66.33"/>
    </edge>
    <edge id=":8699090133_5" function="internal">
        <lane id=":8699090133_5_0" index="0" allow="pedestrian motorcycle moped bicycle" speed="6.53" length="0.77" shape="297.67,68.04 298.44,68.05"/>
    </edge>
    <edge id=":8699090133_6" function="internal">
        <lane id=":8699090133_6_0" index="0" disallow="tram rail_urban rail rail_electric rail_fast ship container cable_car subway aircraft wheelchair scooter drone" speed="2.89" length="2.39" width="2.00" shape="297.67,68.04 298.48,68.44 298.79,68.90 298.60,69.43 298.32,69.67"/>
    </edge>
    <edge id=":8699090133_11" function="internal">
        <lane id=":8699090133_11_0" index="0" allow="pedestrian motorcycle moped bicycle" speed="6.53" length="12.94" shape="298.44,68.05 301.61,68.11 303.75,69.53 304.10,72.32 302.64,76.46"/>
    </edge>
    <edge id=":8699090133_12" function="internal">
        <lane id=":8699090133_12_0" index="0" disallow="tram rail_urban rail rail_electric rail_fast ship container cable_car subway aircraft wheelchair scooter drone" speed="2.89" length="0.53" width="2.00" shape="298.32,69.67 297.92,70.02"/>
    </edge>
    <edge id=":8699090133_7" function="internal">
        <lane id=":8699090133_7_0" index="0" allow="pedestrian motorcycle moped bicycle" speed="5.08" length="7.33" width="2.00" shape="299.77,75.05 300.68,72.64 300.67,70.99 299.76,70.12 297.92,70.02"/>
    </edge>
    <edge id=":8699090133_8" function="internal">
        <lane id=":8699090133_8_0" index="0" allow="pedestrian motorcycle moped bicycle" speed="9.72" length="15.07" width="2.00" shape="299.77,75.05 301.91,71.60 304.54,68.99 307.66,67.23 311.27,66.33"/>
    </edge>
    <edge id=":8699090133_9" function="internal">
        <lane id=":8699090133_9_0" index="0" allow="pedestrian motorcycle moped bicycle" speed="3.65" length="4.67" shape="299.77,75.05 301.01,74.33 301.91,74.32 302.45,75.03 302.64,76.46"/>
    </edge>
    <edge id=":8699090136_0" function="internal">
        <lane id=":8699090136_0_0" index="0" allow="pedestrian motorcycle moped bicycle" speed="3.65" length="4.67" shape="286.17,96.20 284.80,96.64 283.93,96.45 283.55,95.63 283.68,94.20"/>
    </edge>

    <edge id="-257478317" from="2357991496" to="60610699" priority="12" type="highway.primary">
        <lane id="-257478317_0" index="0" disallow="tram rail_urban rail rail_electric rail_fast ship container cable_car subway aircraft wheelchair scooter drone" speed="13.89" length="0.20" width="2.00" shape="336.56,60.66 336.76,60.63"/>
        <lane id="-257478317_1" index="1" disallow="tram rail_urban rail rail_electric rail_fast ship container cable_car subway aircraft wheelchair scooter drone" speed="13.89" length="0.20" width="2.00" shape="336.86,62.63 337.06,62.60"/>
        <param key="ref" value="N28"/>
    </edge>
    <edge id="-317470319" from="2357991496" to="3428376409" priority="12" type="highway.primary" shape="332.46,64.31 317.15,66.59 314.02,66.99">
        <lane id="-317470319_0" index="0" disallow="tram rail_urban rail rail_electric rail_fast ship container cable_car subway aircraft wheelchair scooter drone" speed="13.89" length="5.40" width="2.00" shape="325.82,66.31 320.48,67.11"/>
        <param key="ref" value="N28"/>
    </edge>
    <edge id="-382621595" from="3237442796" to="1387902947" priority="12" type="highway.primary" shape="295.56,69.31 257.98,74.06 239.18,76.56 216.27,79.30 27.67,103.65 0.00,107.11">
        <lane id="-382621595_0" index="0" disallow="tram rail_urban rail rail_electric rail_fast ship container cable_car subway aircraft wheelchair scooter drone" speed="13.89" length="293.97" width="3.00" shape="291.78,71.30 258.17,75.55 239.36,78.04 216.46,80.79 27.86,105.14 0.19,108.60"/>
        <param key="ref" value="N28"/>
    </edge>
    <edge id="-41861847#0" from="1664198077" to="60610702" priority="12" type="highway.primary">
        <lane id="-41861847#0_0" index="0" disallow="tram rail_urban rail rail_electric rail_fast ship container cable_car subway aircraft wheelchair scooter drone" speed="13.89" length="15.88" shape="394.91,37.60 407.62,28.08"/>
        <param key="ref" value="N28"/>
    </edge>