<?xml version="1.0" encoding="UTF-8"?>

<!-- generated on 2024-09-03 01:37:43 by Eclipse SUMO netconvert Version 1.20.0
<configuration xmlns:xsi="http://www.w3.org/2001/XMLSchema-instance" xsi:noNamespaceSchemaLocation="http://sumo.dlr.de/xsd/netconvertConfiguration.xsd">

    <input>
        <osm-files value="train_files/roundabout/middle/osm_files/map(18).osm"/>
    </input>

    <output>
        <output-file value="train_files/roundabout/middle/outputs/map(18)_dict/map(18)/map(18).net.xml"/>
    </output>

    <projection>
        <proj.utm value="true"/>
    </projection>

    <building_defaults>
        <default.junctions.keep-clear value="false"/>
    </building_defaults>

</configuration>
-->

<net version="1.20" junctionCornerDetail="5" limitTurnSpeed="5.50" xmlns:xsi="http://www.w3.org/2001/XMLSchema-instance" xsi:noNamespaceSchemaLocation="http://sumo.dlr.de/xsd/net_file.xsd">

    <location netOffset="-459169.86,-5399687.06" convBoundary="0.00,0.00,1045.97,833.02" origBoundary="2.444488,48.739974,2.458761,48.756393" projParameter="+proj=utm +zone=31 +ellps=WGS84 +datum=WGS84 +units=m +no_defs"/>

    <type id="highway.cycleway" priority="1" numLanes="1" speed="5.56" allow="bicycle" oneway="0" width="2.00"/>
    <type id="highway.footway" priority="1" numLanes="1" speed="2.78" allow="pedestrian" oneway="1" width="2.00"/>
    <type id="highway.residential" priority="3" numLanes="1" speed="13.89" disallow="tram rail_urban rail rail_electric rail_fast ship container cable_car subway aircraft wheelchair scooter drone" oneway="0"/>
    <type id="highway.secondary" priority="11" numLanes="1" speed="27.78" disallow="tram rail_urban rail rail_electric rail_fast ship container cable_car subway aircraft wheelchair scooter drone" oneway="0"/>
    <type id="highway.secondary_link" priority="6" numLanes="1" speed="22.22" disallow="tram rail_urban rail rail_electric rail_fast ship container cable_car subway aircraft wheelchair scooter drone" oneway="0"/>
    <type id="highway.service" priority="1" numLanes="1" speed="5.56" allow="pedestrian delivery bicycle" oneway="0"/>
    <type id="highway.unclassified" priority="4" numLanes="1" speed="13.89" disallow="tram rail_urban rail rail_electric rail_fast ship container cable_car subway aircraft wheelchair scooter drone" oneway="0"/>

    <edge id=":10755566128_0" function="internal">
        <lane id=":10755566128_0_0" index="0" allow="pedestrian delivery bicycle" speed="5.56" length="4.14" shape="654.96,323.12 653.72,319.17"/>
    </edge>
    <edge id=":10755566128_1" function="internal">
        <lane id=":10755566128_1_0" index="0" allow="pedestrian delivery bicycle" speed="3.65" length="1.44" shape="654.96,323.12 655.37,321.73"/>
    </edge>
    <edge id=":10755566128_4" function="internal">
        <lane id=":10755566128_4_0" index="0" allow="pedestrian delivery bicycle" speed="3.65" length="3.23" shape="655.37,321.73 656.01,321.11 656.89,321.25 658.02,322.16"/>
    </edge>
    <edge id=":10755566128_2" function="internal">
        <lane id=":10755566128_2_0" index="0" allow="pedestrian delivery bicycle" speed="5.56" length="4.14" shape="656.77,318.21 658.02,322.16"/>
    </edge>
    <edge id=":10755566128_3" function="internal">
        <lane id=":10755566128_3_0" index="0" allow="pedestrian delivery bicycle" speed="3.65" length="1.44" shape="656.77,318.21 656.37,319.59"/>
    </edge>
    <edge id=":10755566128_5" function="internal">
        <lane id=":10755566128_5_0" index="0" allow="pedestrian delivery bicycle" speed="3.65" length="3.23" shape="656.37,319.59 655.72,320.21 654.84,320.07 653.72,319.17"/>
    </edge>
    <edge id=":11527518918_0" function="internal">
        <lane id=":11527518918_0_0" index="0" allow="pedestrian delivery bicycle" speed="3.65" length="4.67" shape="667.78,308.83 669.16,309.23 669.79,309.88 669.64,310.76 668.74,311.88"/>
    </edge>
    <edge id=":11582842669_0" function="internal">
        <lane id=":11582842669_0_0" index="0" allow="bicycle" speed="5.56" length="6.07" width="2.00" shape="763.79,326.65 763.59,328.43 763.36,329.64 763.07,330.85 762.70,332.61"/>
    </edge>
    <edge id=":11582842669_1" function="internal">
        <lane id=":11582842669_1_0" index="0" allow="bicycle" speed="2.89" length="2.94" width="2.00" shape="763.79,326.65 763.16,327.29 762.62,327.44 762.17,327.10 761.82,326.27"/>
    </edge>
    <edge id=":11582842669_2" function="internal">
        <lane id=":11582842669_2_0" index="0" allow="bicycle" speed="5.56" length="6.07" width="2.00" shape="760.73,332.23 761.11,330.47 761.39,329.27 761.62,328.06 761.82,326.27"/>
    </edge>
    <edge id=":11582842669_3" function="internal">
        <lane id=":11582842669_3_0" index="0" allow="bicycle" speed="2.89" length="2.92" width="2.00" shape="760.73,332.23 761.36,331.59 761.90,331.44 762.35,331.78 762.70,332.61"/>
    </edge>
    <edge id=":1564020572_0" function="internal">
        <lane id=":1564020572_0_0" index="0" allow="pedestrian delivery bicycle" speed="3.65" length="4.67" shape="810.80,399.52 810.92,398.09 811.43,397.35 812.32,397.31 813.60,397.97"/>
    </edge>
    <edge id=":1564020665_0" function="internal">
        <lane id=":1564020665_0_0" index="0" allow="pedestrian delivery bicycle" speed="5.18" length="4.89" shape="863.08,487.35 863.87,488.41 864.83,489.01 865.94,489.14 867.21,488.81"/>
    </edge>
    <edge id=":1564020665_1" function="internal">
        <lane id=":1564020665_1_0" index="0" allow="pedestrian delivery bicycle" speed="3.65" length="4.67" shape="863.08,487.35 862.96,488.79 862.45,489.52 861.56,489.56 860.28,488.90"/>
    </edge>
    <edge id=":1564020665_2" function="internal">
        <lane id=":1564020665_2_0" index="0" allow="pedestrian delivery bicycle" speed="5.16" length="4.88" shape="859.29,493.16 860.26,492.26 860.74,491.25 860.75,490.13 860.28,488.90"/>
    </edge>
    <edge id=":1564020665_3" function="internal">
        <lane id=":1564020665_3_0" index="0" disallow="tram rail_urban rail rail_electric rail_fast ship container cable_car subway aircraft wheelchair scooter drone" speed="8.33" length="9.07" shape="859.29,493.16 861.50,491.63 863.08,490.66 864.74,489.86 867.21,488.81"/>
    </edge>
    <edge id=":1564020673_0" function="internal">
        <lane id=":1564020673_0_0" index="0" disallow="tram rail_urban rail rail_electric rail_fast ship container cable_car subway aircraft wheelchair scooter drone" speed="7.90" length="7.42" shape="701.98,512.42 701.83,513.97 702.17,515.61 703.01,517.34 704.35,519.16"/>
    </edge>
    <edge id=":1564020673_1" function="internal">
        <lane id=":1564020673_1_0" index="0" disallow="tram rail_urban rail rail_electric rail_fast ship container cable_car subway aircraft wheelchair scooter drone" speed="13.89" length="8.54" shape="701.98,512.42 700.16,520.76"/>
    </edge>
    <edge id=":1564020673_2" function="internal">
        <lane id=":1564020673_2_0" index="0" disallow="tram rail_urban rail rail_electric rail_fast ship container cable_car subway aircraft wheelchair scooter drone" speed="3.65" length="1.44" shape="701.98,512.42 700.90,513.38"/>
    </edge>
    <edge id=":1564020673_6" function="internal">
        <lane id=":1564020673_6_0" index="0" disallow="tram rail_urban rail rail_electric rail_fast ship container cable_car subway aircraft wheelchair scooter drone" speed="3.65" length="3.23" shape="700.90,513.38 700.03,513.56 699.36,512.96 698.89,511.60"/>
    </edge>
    <edge id=":1564020673_3" function="internal">
        <lane id=":1564020673_3_0" index="0" disallow="tram rail_urban rail rail_electric rail_fast ship container cable_car subway aircraft wheelchair scooter drone" speed="13.89" length="8.73" shape="697.02,520.12 698.89,511.60"/>
    </edge>
    <edge id=":1564020673_4" function="internal">
        <lane id=":1564020673_4_0" index="0" disallow="tram rail_urban rail rail_electric rail_fast ship container cable_car subway aircraft wheelchair scooter drone" speed="5.89" length="3.39" shape="697.02,520.12 698.07,517.16 698.27,517.02"/>
    </edge>
    <edge id=":1564020673_5" function="internal">
        <lane id=":1564020673_5_0" index="0" disallow="tram rail_urban rail rail_electric rail_fast ship container cable_car subway aircraft wheelchair scooter drone" speed="3.65" length="1.44" shape="697.02,520.12 698.05,519.11"/>
    </edge>
    <edge id=":1564020673_7" function="internal">
        <lane id=":1564020673_7_0" index="0" disallow="tram rail_urban rail rail_electric rail_fast ship container cable_car subway aircraft wheelchair scooter drone" speed="5.89" length="7.50" shape="698.27,517.02 699.65,516.02 701.74,516.68 704.35,519.16"/>
    </edge>
    <edge id=":1564020673_8" function="internal">
        <lane id=":1564020673_8_0" index="0" disallow="tram rail_urban rail rail_electric rail_fast ship container cable_car subway aircraft wheelchair scooter drone" speed="3.65" length="3.23" shape="698.05,519.11 698.91,518.87 699.61,519.43 700.16,520.76"/>
    </edge>
    <edge id=":2109454033_0" function="internal">
        <lane id=":2109454033_0_0" index="0" allow="pedestrian delivery bicycle" speed="4.77" length="4.34" shape="653.66,318.98 653.17,318.09 652.41,317.59 651.36,317.47 650.02,317.74"/>
    </edge>
    <edge id=":2109454033_1" function="internal">
        <lane id=":2109454033_1_0" index="0" allow="pedestrian delivery bicycle" speed="5.56" length="9.49" shape="653.66,318.98 653.31,316.59 653.93,314.61 655.50,313.04 658.03,311.89"/>
    </edge>
    <edge id=":2109454033_2" function="internal">
        <lane id=":2109454033_2_0" index="0" allow="pedestrian delivery bicycle" speed="3.65" length="4.67" shape="653.66,318.98 654.06,317.59 654.70,316.97 655.58,317.11 656.71,318.01"/>
    </edge>
    <edge id=":2109454033_3" function="internal">
        <lane id=":2109454033_3_0" index="0" allow="pedestrian delivery bicycle" speed="4.75" length="4.33" shape="658.99,314.94 657.74,315.48 656.94,316.18 656.60,317.02 656.71,318.01"/>
    </edge>
    <edge id=":2109454033_4" function="internal">
        <lane id=":2109454033_4_0" index="0" allow="pedestrian delivery bicycle" speed="5.56" length="9.39" shape="658.99,314.94 650.02,317.74"/>
    </edge>
    <edge id=":2109454033_5" function="internal">
        <lane id=":2109454033_5_0" index="0" allow="pedestrian delivery bicycle" speed="3.65" length="4.67" shape="658.99,314.94 657.61,314.54 656.99,313.90 657.13,313.01 658.03,311.89"/>
    </edge>
    <edge id=":2109454033_6" function="internal">
        <lane id=":2109454033_6_0" index="0" allow="pedestrian delivery bicycle" speed="5.56" length="9.38" shape="649.08,314.68 658.03,311.89"/>
    </edge>
    <edge id=":2109454033_7" function="internal">
        <lane id=":2109454033_7_0" index="0" allow="pedestrian delivery bicycle" speed="5.56" length="9.47" shape="649.08,314.68 651.80,314.19 653.98,314.59 655.62,315.86 656.71,318.01"/>
    </edge>
    <edge id=":2109454033_8" function="internal">
        <lane id=":2109454033_8_0" index="0" allow="pedestrian delivery bicycle" speed="3.65" length="4.67" shape="649.08,314.68 650.46,315.09 651.08,315.74 650.93,316.62 650.02,317.74"/>
    </edge>
    <edge id=":2109454053_0" function="internal">
        <lane id=":2109454053_0_0" index="0" allow="pedestrian delivery bicycle" speed="3.65" length="4.67" shape="300.94,548.44 299.55,548.06 298.92,547.42 299.05,546.54 299.94,545.40"/>
    </edge>
    <edge id=":243771424_0" function="internal">
        <lane id=":243771424_0_0" index="0" disallow="tram rail_urban rail rail_electric rail_fast ship container cable_car subway aircraft wheelchair scooter drone" speed="27.78" length="0.55" shape="752.81,422.98 752.70,423.09 752.61,423.16 752.51,423.22 752.37,423.29"/>
    </edge>
    <edge id=":243771428_0" function="internal">
        <lane id=":243771428_0_0" index="0" disallow="tram rail_urban rail rail_electric rail_fast ship container cable_car subway aircraft wheelchair scooter drone" speed="9.48" length="6.18" shape="776.60,391.35 775.16,392.49 774.15,393.34 773.46,394.37 772.94,396.07"/>
    </edge>
    <edge id=":243771428_1" function="internal">
        <lane id=":243771428_1_0" index="0" disallow="tram rail_urban rail rail_electric rail_fast ship container cable_car subway aircraft wheelchair scooter drone" speed="15.73" length="6.24" shape="772.57,389.92 772.97,391.73 773.22,393.00 773.24,394.26 772.94,396.07"/>
    </edge>
    <edge id=":243771429_0" function="internal">
        <lane id=":243771429_0_0" index="0" disallow="tram rail_urban rail rail_electric rail_fast ship container cable_car subway aircraft wheelchair scooter drone" speed="8.17" length="6.68" shape="764.90,375.41 765.98,376.16 767.40,376.64 769.16,376.85 771.25,376.80"/>
    </edge>
    <edge id=":243771429_1" function="internal">
        <lane id=":243771429_1_0" index="0" disallow="tram rail_urban rail rail_electric rail_fast ship container cable_car subway aircraft wheelchair scooter drone" speed="27.78" length="7.07" shape="764.90,375.41 766.37,376.89 767.29,378.00 768.10,379.19 769.26,380.94"/>
    </edge>
    <edge id=":243771431_0" function="internal">
        <lane id=":243771431_0_0" index="0" disallow="tram rail_urban rail rail_electric rail_fast ship container cable_car subway aircraft wheelchair scooter drone" speed="8.19" length="6.35" shape="757.16,367.67 757.89,369.51 758.72,370.97 759.66,372.05 760.71,372.75"/>
    </edge>
    <edge id=":243771431_1" function="internal">
        <lane id=":243771431_1_0" index="0" disallow="tram rail_urban rail rail_electric rail_fast ship container cable_car subway aircraft wheelchair scooter drone" speed="27.78" length="6.68" shape="754.26,371.19 756.24,371.42 757.59,371.61 758.90,371.98 760.71,372.75"/>
    </edge>
    <edge id=":243771433_0" function="internal">
        <lane id=":243771433_0_0" index="0" disallow="tram rail_urban rail rail_electric rail_fast ship container cable_car subway aircraft wheelchair scooter drone" speed="27.78" length="7.81" shape="734.39,375.29 735.88,373.53 736.74,372.20 737.47,370.78 738.55,368.72"/>
    </edge>
    <edge id=":243771433_1" function="internal">
        <lane id=":243771433_1_0" index="0" disallow="tram rail_urban rail rail_electric rail_fast ship container cable_car subway aircraft wheelchair scooter drone" speed="14.75" length="7.81" shape="734.39,375.29 736.04,373.74 737.42,372.99 738.98,372.50 741.19,371.77"/>
    </edge>
    <edge id=":243771440_0" function="internal">
        <lane id=":243771440_0_0" index="0" disallow="tram rail_urban rail rail_electric rail_fast ship container cable_car subway aircraft wheelchair scooter drone" speed="7.14" length="8.67" shape="744.91,426.36 742.83,427.08 741.28,428.33 740.24,430.13 739.72,432.47"/>
    </edge>
    <edge id=":243771440_1" function="internal">
        <lane id=":243771440_1_0" index="0" disallow="tram rail_urban rail rail_electric rail_fast ship container cable_car subway aircraft wheelchair scooter drone" speed="22.47" length="12.85" shape="744.91,426.36 741.53,426.87 738.53,427.00 735.53,426.76 732.17,426.14"/>
    </edge>
    <edge id=":243771440_2" function="internal">
        <lane id=":243771440_2_0" index="0" disallow="tram rail_urban rail rail_electric rail_fast ship container cable_car subway aircraft wheelchair scooter drone" speed="6.53" length="8.28" shape="736.54,432.16 736.45,429.93 735.69,428.18 734.26,426.92 732.17,426.14"/>
    </edge>
    <edge id=":243771524_0" function="internal">
        <lane id=":243771524_0_0" index="0" disallow="tram rail_urban rail rail_electric rail_fast ship container cable_car subway aircraft wheelchair scooter drone" speed="7.30" length="6.83" shape="723.15,420.98 721.81,420.23 720.27,419.91 718.55,420.03 716.64,420.59"/>
    </edge>
    <edge id=":243771524_1" function="internal">
        <lane id=":243771524_1_0" index="0" disallow="tram rail_urban rail rail_electric rail_fast ship container cable_car subway aircraft wheelchair scooter drone" speed="27.78" length="7.44" shape="723.15,420.98 721.44,419.60 720.37,418.53 719.45,417.32 718.19,415.50"/>
    </edge>
    <edge id=":243771721_0" function="internal">
        <lane id=":243771721_0_0" index="0" disallow="tram rail_urban rail rail_electric rail_fast ship container cable_car subway aircraft wheelchair scooter drone" speed="27.78" length="3.40" shape="754.62,353.41 754.55,354.41 754.50,355.11 754.52,355.80 754.68,356.79"/>
    </edge>
    <edge id=":243771738_0" function="internal">
        <lane id=":243771738_0_0" index="0" disallow="tram rail_urban rail rail_electric rail_fast ship container cable_car subway aircraft wheelchair scooter drone" speed="3.71" length="4.54" shape="755.48,292.37 756.24,291.18 757.01,290.78 757.79,291.15 758.60,292.30"/>
    </edge>
    <edge id=":243771813_0" function="internal">
        <lane id=":243771813_0_0" index="0" disallow="tram rail_urban rail rail_electric rail_fast ship container cable_car subway aircraft wheelchair scooter drone" speed="7.26" length="10.09" shape="740.14,346.07 743.10,345.99 745.41,345.19 747.05,343.67 748.04,341.43"/>
    </edge>
    <edge id=":243771813_1" function="internal">
        <lane id=":243771813_1_0" index="0" disallow="tram rail_urban rail rail_electric rail_fast ship container cable_car subway aircraft wheelchair scooter drone" speed="3.65" length="4.67" shape="740.14,346.07 741.27,346.97 741.60,347.80 741.13,348.57 739.87,349.26"/>
    </edge>
    <edge id=":243771813_2" function="internal">
        <lane id=":243771813_2_0" index="0" disallow="tram rail_urban rail rail_electric rail_fast ship container cable_car subway aircraft wheelchair scooter drone" speed="5.76" length="8.02" shape="744.47,354.12 744.70,352.18 744.01,350.73 742.40,349.76 739.87,349.26"/>
    </edge>
    <edge id=":243771813_3" function="internal">
        <lane id=":243771813_3_0" index="0" disallow="tram rail_urban rail rail_electric rail_fast ship container cable_car subway aircraft wheelchair scooter drone" speed="27.78" length="13.18" shape="744.47,354.12 748.04,341.43"/>
    </edge>
    <edge id=":243773242_0" function="internal">
        <lane id=":243773242_0_0" index="0" disallow="tram rail_urban rail rail_electric rail_fast ship container cable_car subway aircraft wheelchair scooter drone" speed="27.78" length="3.96" shape="695.47,416.81 699.17,415.40"/>
    </edge>
    <edge id=":243773244_0" function="internal">
        <lane id=":243773244_0_0" index="0" disallow="tram rail_urban rail rail_electric rail_fast ship container cable_car subway aircraft wheelchair scooter drone" speed="27.78" length="7.47" shape="716.05,409.01 715.81,406.81 715.66,405.30 715.60,403.78 715.63,401.57"/>
    </edge>
    <edge id=":243773244_1" function="internal">
        <lane id=":243773244_1_0" index="0" disallow="tram rail_urban rail rail_electric rail_fast ship container cable_car subway aircraft wheelchair scooter drone" speed="8.52" length="6.93" shape="711.75,407.14 713.43,405.52 714.63,404.06 715.37,402.74 715.63,401.57"/>
    </edge>
    <edge id=":2502295351_0" function="internal">
        <lane id=":2502295351_0_0" index="0" disallow="tram rail_urban rail rail_electric rail_fast ship container cable_car subway aircraft wheelchair scooter drone" speed="27.78" length="2.30" shape="743.75,356.51 744.41,354.31"/>
    </edge>
    <edge id=":2502295363_0" function="internal">
        <lane id=":2502295363_0_0" index="0" disallow="tram rail_urban rail rail_electric rail_fast ship container cable_car subway aircraft wheelchair scooter drone" speed="27.78" length="6.71" shape="818.65,368.85 812.40,371.26"/>
    </edge>
    <edge id=":2502295363_1" function="internal">
        <lane id=":2502295363_1_0" index="0" disallow="tram rail_urban rail rail_electric rail_fast ship container cable_car subway aircraft wheelchair scooter drone" speed="27.78" length="6.68" shape="811.24,368.28 817.47,365.88"/>
    </edge>
    <edge id=":2502295374_0" function="internal">
        <lane id=":2502295374_0_0" index="0" allow="bicycle" speed="5.56" length="5.24" width="2.00" shape="782.32,379.73 781.71,378.29 781.29,377.31 780.95,376.30 780.54,374.80"/>
    </edge>
    <edge id=":2502295374_1" function="internal">
        <lane id=":2502295374_1_0" index="0" allow="bicycle" speed="5.32" length="7.30" width="2.00" shape="782.32,379.73 781.88,377.83 782.31,376.38 783.60,375.38 785.74,374.83"/>
    </edge>
    <edge id=":2502295374_2" function="internal">
        <lane id=":2502295374_2_0" index="0" allow="bicycle" speed="2.89" length="2.92" width="2.00" shape="782.32,379.73 782.50,378.84 782.87,378.42 783.42,378.47 784.17,378.97"/>
    </edge>
    <edge id=":2502295374_3" function="internal">
        <lane id=":2502295374_3_0" index="0" allow="bicycle" speed="4.34" length="3.50" width="2.00" shape="782.49,374.33 782.96,374.83 783.83,374.99 784.85,374.94 785.74,374.83"/>
    </edge>
    <edge id=":2502295374_4" function="internal">
        <lane id=":2502295374_4_0" index="0" allow="bicycle" speed="5.56" length="4.95" width="2.00" shape="782.49,374.33 782.87,375.74 783.20,376.69 783.60,377.62 784.17,378.97"/>
    </edge>
    <edge id=":2502295374_5" function="internal">
        <lane id=":2502295374_5_0" index="0" allow="bicycle" speed="2.89" length="2.92" width="2.00" shape="782.49,374.33 782.18,375.17 781.75,375.54 781.21,375.41 780.54,374.80"/>
    </edge>
    <edge id=":2502295374_6" function="internal">
        <lane id=":2502295374_6_0" index="0" allow="bicycle" speed="3.93" length="2.95" width="2.00" shape="778.03,375.64 778.88,375.61 779.75,375.56 780.39,375.33 780.54,374.80"/>
    </edge>
    <edge id=":2502295374_7" function="internal">
        <lane id=":2502295374_7_0" index="0" disallow="tram rail_urban rail rail_electric rail_fast ship container cable_car subway aircraft wheelchair scooter drone" speed="27.78" length="7.78" shape="778.08,376.24 785.82,375.43"/>
    </edge>
    <edge id=":2502295374_8" function="internal">
        <lane id=":2502295374_8_0" index="0" allow="bicycle" speed="6.46" length="6.83" width="2.00" shape="778.13,376.84 780.38,376.82 782.14,377.17 783.40,377.88 784.17,378.97"/>
    </edge>
    <edge id=":2502295389_0" function="internal">
        <lane id=":2502295389_0_0" index="0" allow="bicycle" speed="4.41" length="4.14" width="2.00" shape="786.39,387.36 785.57,386.54 784.70,386.18 783.79,386.30 782.83,386.89"/>
    </edge>
    <edge id=":2502295389_1" function="internal">
        <lane id=":2502295389_1_0" index="0" allow="bicycle" speed="5.56" length="7.00" width="2.00" shape="786.39,387.36 785.15,385.69 784.38,384.50 783.75,383.21 782.96,381.30"/>
    </edge>
    <edge id=":2502295389_2" function="internal">
        <lane id=":2502295389_2_0" index="0" allow="bicycle" speed="2.89" length="2.92" width="2.00" shape="786.39,387.36 786.33,386.46 786.58,385.95 787.13,385.85 787.98,386.15"/>
    </edge>
    <edge id=":2502295389_3" function="internal">
        <lane id=":2502295389_3_0" index="0" allow="bicycle" speed="4.56" length="4.19" width="2.00" shape="788.73,382.64 787.81,383.40 787.38,384.23 787.44,385.15 787.98,386.15"/>
    </edge>
    <edge id=":2502295389_4" function="internal">
        <lane id=":2502295389_4_0" index="0" disallow="tram rail_urban rail rail_electric rail_fast ship container cable_car subway aircraft wheelchair scooter drone" speed="27.78" length="7.37" shape="788.42,382.13 786.56,383.28 785.31,384.12 784.13,385.03 782.45,386.43"/>
    </edge>
    <edge id=":2502295389_5" function="internal">
        <lane id=":2502295389_5_0" index="0" allow="bicycle" speed="5.18" length="6.01" width="2.00" shape="788.10,381.62 786.28,382.53 784.81,382.77 783.71,382.37 782.96,381.30"/>
    </edge>
    <edge id=":2502295389_6" function="internal">
        <lane id=":2502295389_6_0" index="0" allow="bicycle" speed="5.56" length="6.47" width="2.00" shape="784.81,380.54 785.54,382.32 786.12,383.50 786.83,384.61 787.98,386.15"/>
    </edge>
    <edge id=":2502295389_7" function="internal">
        <lane id=":2502295389_7_0" index="0" allow="bicycle" speed="6.50" length="7.16" width="2.00" shape="784.81,380.54 785.22,382.25 785.03,383.87 784.23,385.42 782.83,386.89"/>
    </edge>
    <edge id=":2502295389_8" function="internal">
        <lane id=":2502295389_8_0" index="0" allow="bicycle" speed="2.89" length="2.92" width="2.00" shape="784.81,380.54 784.63,381.43 784.26,381.85 783.70,381.80 782.96,381.30"/>
    </edge>
    <edge id=":2502295423_0" function="internal">
        <lane id=":2502295423_0_0" index="0" disallow="tram rail_urban rail rail_electric rail_fast ship container cable_car subway aircraft wheelchair scooter drone" speed="27.78" length="3.92" shape="703.25,425.77 699.59,427.20"/>
    </edge>
    <edge id=":2502295425_0" function="internal">
        <lane id=":2502295425_0_0" index="0" allow="bicycle" speed="6.31" length="6.86" width="2.00" shape="742.66,437.53 741.29,437.83 740.11,438.73 739.13,440.20 738.35,442.27"/>
    </edge>
    <edge id=":2502295425_1" function="internal">
        <lane id=":2502295425_1_0" index="0" allow="bicycle" speed="5.56" length="10.80" width="2.00" shape="742.66,437.53 739.57,437.59 737.27,437.76 734.98,438.08 731.93,438.60"/>
    </edge>
    <edge id=":2502295425_2" function="internal">
        <lane id=":2502295425_2_0" index="0" allow="bicycle" speed="6.37" length="9.74" width="2.00" shape="742.66,437.53 739.51,437.24 737.34,436.31 736.13,434.74 735.90,432.52"/>
    </edge>
    <edge id=":2502295425_3" function="internal">
        <lane id=":2502295425_3_0" index="0" allow="bicycle" speed="2.89" length="2.92" width="2.00" shape="742.66,437.53 741.90,437.03 741.65,436.54 741.89,436.03 742.64,435.53"/>
    </edge>
    <edge id=":2502295425_4" function="internal">
        <lane id=":2502295425_4_0" index="0" allow="bicycle" speed="4.50" length="4.09" width="2.00" shape="740.28,432.95 740.33,434.09 740.74,434.90 741.51,435.37 742.64,435.53"/>
    </edge>
    <edge id=":2502295425_5" function="internal">
        <lane id=":2502295425_5_0" index="0" disallow="tram rail_urban rail rail_electric rail_fast ship container cable_car subway aircraft wheelchair scooter drone" speed="13.89" length="9.43" shape="739.68,432.89 739.37,435.67 739.05,437.56 738.56,439.41 737.78,442.10"/>
    </edge>
    <edge id=":2502295425_6" function="internal">
        <lane id=":2502295425_6_0" index="0" allow="bicycle" speed="7.54" length="0.65" width="2.00" shape="739.09,432.83 738.90,433.45"/>
    </edge>
    <edge id=":2502295425_14" function="internal">
        <lane id=":2502295425_14_0" index="0" allow="bicycle" speed="7.54" length="9.26" width="2.00" shape="738.90,433.45 738.47,434.92 737.07,436.57 734.89,437.80 731.93,438.60"/>
    </edge>
    <edge id=":2502295425_7" function="internal">
        <lane id=":2502295425_7_0" index="0" allow="bicycle" speed="6.08" length="6.46" width="2.00" shape="731.59,436.63 733.35,436.11 734.65,435.25 735.51,434.06 735.90,432.52"/>
    </edge>
    <edge id=":2502295425_8" function="internal">
        <lane id=":2502295425_8_0" index="0" allow="bicycle" speed="5.56" length="11.12" width="2.00" shape="731.59,436.63 734.69,436.10 737.09,435.77 739.49,435.60 742.64,435.53"/>
    </edge>
    <edge id=":2502295425_9" function="internal">
        <lane id=":2502295425_9_0" index="0" allow="bicycle" speed="6.22" length="11.54" width="2.00" shape="731.59,436.63 735.33,436.40 737.70,437.27 738.71,439.22 738.35,442.27"/>
    </edge>
    <edge id=":2502295425_10" function="internal">
        <lane id=":2502295425_10_0" index="0" allow="bicycle" speed="2.89" length="2.92" width="2.00" shape="731.59,436.63 732.42,436.99 732.75,437.44 732.59,437.98 731.93,438.60"/>
    </edge>
    <edge id=":2502295425_11" function="internal">
        <lane id=":2502295425_11_0" index="0" allow="bicycle" speed="4.23" length="4.34" width="2.00" shape="734.13,441.05 734.31,439.78 734.01,438.94 733.22,438.55 731.93,438.60"/>
    </edge>
    <edge id=":2502295425_12" function="internal">
        <lane id=":2502295425_12_0" index="0" disallow="tram rail_urban rail rail_electric rail_fast ship container cable_car subway aircraft wheelchair scooter drone" speed="13.89" length="8.84" shape="734.70,441.21 735.44,438.69 735.90,436.95 736.21,435.18 736.50,432.58"/>
    </edge>
    <edge id=":2502295425_13" function="internal">
        <lane id=":2502295425_13_0" index="0" allow="bicycle" speed="7.70" length="0.88" width="2.00" shape="735.28,441.38 735.63,440.57"/>
    </edge>
    <edge id=":2502295425_15" function="internal">
        <lane id=":2502295425_15_0" index="0" allow="bicycle" speed="7.70" length="9.28" width="2.00" shape="735.63,440.57 736.37,438.84 737.96,437.02 740.05,435.91 742.64,435.53"/>
    </edge>
    <edge id=":2836969016_0" function="internal">
        <lane id=":2836969016_0_0" index="0" disallow="tram rail_urban rail rail_electric rail_fast ship container cable_car subway aircraft wheelchair scooter drone" speed="15.98" length="14.47" shape="677.95,439.74 674.32,439.21 670.75,439.17 667.22,439.67 663.71,440.74"/>
    </edge>
    <edge id=":2836969016_1" function="internal">
        <lane id=":2836969016_1_0" index="0" disallow="tram rail_urban rail rail_electric rail_fast ship container cable_car subway aircraft wheelchair scooter drone" speed="27.78" length="14.41" shape="677.23,435.76 663.71,440.74"/>
    </edge>
    <edge id=":2836969017_0" function="internal">
        <lane id=":2836969017_0_0" index="0" allow="bicycle" speed="8.12" length="8.32" width="2.00" shape="690.15,444.34 688.39,443.45 686.48,443.10 684.42,443.28 682.20,444.00"/>
    </edge>
    <edge id=":2836969017_1" function="internal">
        <lane id=":2836969017_1_0" index="0" disallow="tram rail_urban rail rail_electric rail_fast ship container cable_car subway aircraft wheelchair scooter drone" speed="19.76" length="9.15" shape="690.49,443.84 688.22,442.39 686.53,441.62 684.71,441.15 682.05,440.61"/>
    </edge>
    <edge id=":2836969017_2" function="internal">