<?xml version="1.0" encoding="UTF-8"?>

<!-- generated on 2024-09-03 01:37:42 by Eclipse SUMO netconvert Version 1.20.0
<configuration xmlns:xsi="http://www.w3.org/2001/XMLSchema-instance" xsi:noNamespaceSchemaLocation="http://sumo.dlr.de/xsd/netconvertConfiguration.xsd">

    <input>
        <osm-files value="train_files/roundabout/middle/osm_files/map(15).osm"/>
    </input>

    <output>
        <output-file value="train_files/roundabout/middle/outputs/map(15)_dict/map(15)/map(15).net.xml"/>
    </output>

    <projection>
        <proj.utm value="true"/>
    </projection>

    <building_defaults>
        <default.junctions.keep-clear value="false"/>
    </building_defaults>

</configuration>
-->

<net version="1.20" junctionCornerDetail="5" limitTurnSpeed="5.50" xmlns:xsi="http://www.w3.org/2001/XMLSchema-instance" xsi:noNamespaceSchemaLocation="http://sumo.dlr.de/xsd/net_file.xsd">

    <location netOffset="-431058.77,-5437695.64" convBoundary="0.00,0.00,358.42,409.36" origBoundary="2.055695,49.088291,2.060673,49.091933" projParameter="+proj=utm +zone=31 +ellps=WGS84 +datum=WGS84 +units=m +no_defs"/>

    <type id="highway.cycleway" priority="1" numLanes="1" speed="5.56" allow="bicycle" oneway="0" width="2.00"/>
    <type id="highway.primary" priority="12" numLanes="2" speed="27.78" disallow="tram rail_urban rail rail_electric rail_fast ship container cable_car subway aircraft wheelchair scooter drone" oneway="0"/>
    <type id="highway.secondary" priority="11" numLanes="1" speed="27.78" disallow="tram rail_urban rail rail_electric rail_fast ship container cable_car subway aircraft wheelchair scooter drone" oneway="0"/>

    <edge id=":1910179469_0" function="internal">
        <lane id=":1910179469_0_0" index="0" allow="bicycle" speed="12.50" length="9.94" width="2.00" shape="251.91,139.69 250.24,141.92 249.86,143.95 249.64,146.12 248.42,148.75"/>
    </edge>
    <edge id=":1910179469_1" function="internal">
        <lane id=":1910179469_1_0" index="0" disallow="tram rail_urban rail rail_electric rail_fast ship container cable_car subway aircraft wheelchair scooter drone" speed="19.44" length="9.75" shape="251.51,139.24 249.53,141.30 248.46,142.96 247.50,144.73 245.87,147.12"/>
        <lane id=":1910179469_1_1" index="1" disallow="tram rail_urban rail rail_electric rail_fast ship container cable_car subway aircraft wheelchair scooter drone" speed="19.44" length="9.75" shape="251.51,139.24 249.18,140.94 247.32,141.81 245.59,142.79 243.61,144.82"/>
    </edge>
    <edge id=":1910179479_0" function="internal">
        <lane id=":1910179479_0_0" index="0" allow="bicycle" speed="4.08" length="3.48" width="2.00" shape="176.40,157.59 177.15,158.53 177.86,159.01 178.52,159.03 179.14,158.59"/>
    </edge>
    <edge id=":1910179479_1" function="internal">
        <lane id=":1910179479_1_0" index="0" disallow="tram rail_urban rail rail_electric rail_fast ship container cable_car subway aircraft wheelchair scooter drone" speed="27.78" length="5.03" shape="175.90,157.92 176.72,159.17 177.30,160.01 177.97,160.79 179.01,161.86"/>
    </edge>
    <edge id=":1910179479_2" function="internal">
        <lane id=":1910179479_2_0" index="0" allow="bicycle" speed="5.56" length="5.53" width="2.00" shape="174.88,162.05 176.27,161.18 177.20,160.54 178.03,159.78 179.14,158.59"/>
    </edge>
    <edge id=":1910179479_3" function="internal">
        <lane id=":1910179479_3_0" index="0" allow="bicycle" speed="5.29" length="4.93" width="2.00" shape="174.88,162.05 176.35,161.26 177.60,160.90 178.63,160.96 179.43,161.43"/>
    </edge>
    <edge id=":1910179482_0" function="internal">
        <lane id=":1910179482_0_0" index="0" allow="bicycle" speed="3.98" length="3.34" width="2.00" shape="206.79,160.58 207.33,161.04 207.99,161.12 208.77,160.82 209.68,160.14"/>
    </edge>
    <edge id=":1910179482_1" function="internal">
        <lane id=":1910179482_1_0" index="0" allow="bicycle" speed="5.56" length="8.74" width="2.00" shape="206.79,160.58 208.13,162.80 208.82,164.48 209.60,166.08 211.23,168.04"/>
    </edge>
    <edge id=":1910179482_2" function="internal">
        <lane id=":1910179482_2_0" index="0" disallow="tram rail_urban rail rail_electric rail_fast ship container cable_car subway aircraft wheelchair scooter drone" speed="25.00" length="5.51" shape="206.24,163.64 207.44,162.81 208.23,162.21 208.99,161.56 210.08,160.59"/>
        <lane id=":1910179482_2_1" index="1" disallow="tram rail_urban rail rail_electric rail_fast ship container cable_car subway aircraft wheelchair scooter drone" speed="25.00" length="5.51" shape="207.41,166.71 208.90,165.69 209.90,164.96 210.86,164.18 212.22,162.98"/>
    </edge>
    <edge id=":1910179482_4" function="internal">
        <lane id=":1910179482_4_0" index="0" allow="bicycle" speed="4.86" length="3.91" width="2.00" shape="207.75,167.21 208.56,166.86 209.41,166.89 210.30,167.28 211.23,168.04"/>
    </edge>
    <edge id=":1910179502_0" function="internal">
        <lane id=":1910179502_0_0" index="0" disallow="tram rail_urban rail rail_electric rail_fast ship container cable_car subway aircraft wheelchair scooter drone" speed="27.78" length="4.25" shape="168.21,167.36 168.15,166.10 168.08,165.24 167.97,164.38 167.80,163.13"/>
    </edge>
    <edge id=":1910179502_1" function="internal">
        <lane id=":1910179502_1_0" index="0" allow="bicycle" speed="4.73" length="3.66" width="2.00" shape="168.81,167.34 168.94,166.55 169.39,165.91 170.17,165.41 171.27,165.05"/>
    </edge>
    <edge id=":1910179502_2" function="internal">
        <lane id=":1910179502_2_0" index="0" allow="bicycle" speed="3.94" length="3.22" width="2.00" shape="166.18,165.88 166.75,165.68 167.12,165.17 167.27,164.35 167.20,163.21"/>
    </edge>
    <edge id=":1910179502_3" function="internal">
        <lane id=":1910179502_3_0" index="0" allow="bicycle" speed="5.56" length="5.17" width="2.00" shape="166.18,165.88 167.70,165.77 168.74,165.62 169.77,165.40 171.27,165.05"/>
    </edge>
    <edge id=":1910179506_0" function="internal">
        <lane id=":1910179506_0_0" index="0" allow="bicycle" speed="4.23" length="3.26" width="2.00" shape="226.86,174.41 226.35,175.39 226.17,176.20 226.31,176.84 226.78,177.31"/>
    </edge>
    <edge id=":1910179506_1" function="internal">
        <lane id=":1910179506_1_0" index="0" disallow="tram rail_urban rail rail_electric rail_fast ship container cable_car subway aircraft wheelchair scooter drone" speed="19.44" length="5.21" shape="226.35,174.09 223.60,178.50"/>
        <lane id=":1910179506_1_1" index="1" disallow="tram rail_urban rail rail_electric rail_fast ship container cable_car subway aircraft wheelchair scooter drone" speed="19.44" length="5.21" shape="223.64,172.38 220.87,176.82"/>
    </edge>
    <edge id=":1910179506_3" function="internal">
        <lane id=":1910179506_3_0" index="0" allow="bicycle" speed="5.56" length="8.44" width="2.00" shape="219.63,172.86 221.59,174.41 223.06,175.29 224.60,176.08 226.78,177.31"/>
    </edge>
    <edge id=":1910179506_4" function="internal">
        <lane id=":1910179506_4_0" index="0" allow="bicycle" speed="5.17" length="5.03" width="2.00" shape="219.63,172.86 220.82,174.05 221.51,175.16 221.70,176.19 221.39,177.14"/>
    </edge>
    <edge id=":1910179509_0" function="internal">
        <lane id=":1910179509_0_0" index="0" allow="bicycle" speed="5.56" length="8.82" width="2.00" shape="162.41,224.28 154.95,219.57"/>
    </edge>
    <edge id=":1910179509_1" function="internal">
        <lane id=":1910179509_1_0" index="0" allow="bicycle" speed="5.57" length="5.77" width="2.00" shape="162.41,224.28 161.12,223.17 160.37,221.98 160.17,220.72 160.50,219.37"/>
    </edge>
    <edge id=":1910179509_2" function="internal">
        <lane id=":1910179509_2_0" index="0" allow="bicycle" speed="4.51" length="3.78" width="2.00" shape="155.16,222.92 155.66,221.79 155.79,220.86 155.56,220.12 154.95,219.57"/>
    </edge>
    <edge id=":1910179509_3" function="internal">
        <lane id=":1910179509_3_0" index="0" disallow="tram rail_urban rail rail_electric rail_fast ship container cable_car subway aircraft wheelchair scooter drone" speed="19.44" length="5.63" shape="155.68,223.22 156.47,221.80 156.99,220.81 157.47,219.81 158.13,218.32"/>
        <lane id=":1910179509_3_1" index="1" disallow="tram rail_urban rail rail_electric rail_fast ship container cable_car subway aircraft wheelchair scooter drone" speed="19.44" length="5.63" shape="158.47,224.78 159.31,223.28 159.86,222.25 160.36,221.18 161.05,219.62"/>
    </edge>
    <edge id=":1910179513_0" function="internal">
        <lane id=":1910179513_0_0" index="0" allow="bicycle" speed="4.08" length="3.30" width="2.00" shape="219.05,224.41 218.48,224.81 218.21,225.42 218.24,226.26 218.56,227.31"/>
    </edge>
    <edge id=":1910179513_1" function="internal">
        <lane id=":1910179513_1_0" index="0" allow="bicycle" speed="5.56" length="5.26" width="2.00" shape="219.05,224.41 217.56,224.89 216.49,225.10 215.47,225.41 214.16,226.20"/>
    </edge>
    <edge id=":1910179513_2" function="internal">
        <lane id=":1910179513_2_0" index="0" disallow="tram rail_urban rail rail_electric rail_fast ship container cable_car subway aircraft wheelchair scooter drone" speed="27.78" length="5.28" shape="216.46,222.49 216.81,224.02 217.08,225.06 217.43,226.08 218.01,227.53"/>
    </edge>
    <edge id=":1910179513_3" function="internal">
        <lane id=":1910179513_3_0" index="0" allow="bicycle" speed="5.51" length="4.21" width="2.00" shape="215.88,222.62 215.94,223.60 215.67,224.52 215.08,225.39 214.16,226.20"/>
    </edge>
    <edge id=":1910179517_0" function="internal">
        <lane id=":1910179517_0_0" index="0" allow="bicycle" speed="4.02" length="3.37" width="2.00" shape="172.15,233.80 171.64,233.29 170.98,233.15 170.17,233.36 169.20,233.95"/>
    </edge>
    <edge id=":1910179517_1" function="internal">
        <lane id=":1910179517_1_0" index="0" allow="bicycle" speed="5.56" length="8.49" width="2.00" shape="172.15,233.80 167.57,226.65"/>
    </edge>
    <edge id=":1910179517_2" function="internal">
        <lane id=":1910179517_2_0" index="0" disallow="tram rail_urban rail rail_electric rail_fast ship container cable_car subway aircraft wheelchair scooter drone" speed="22.22" length="5.50" shape="173.19,230.83 171.83,231.50 170.93,232.00 170.07,232.57 168.85,233.46"/>
        <lane id=":1910179517_2_1" index="1" disallow="tram rail_urban rail rail_electric rail_fast ship container cable_car subway aircraft wheelchair scooter drone" speed="22.22" length="5.50" shape="171.99,227.86 170.41,228.63 169.36,229.20 168.36,229.86 166.95,230.89"/>
    </edge>
    <edge id=":1910179517_4" function="internal">
        <lane id=":1910179517_4_0" index="0" allow="bicycle" speed="5.11" length="4.66" width="2.00" shape="171.73,227.32 170.40,227.79 169.27,227.84 168.32,227.46 167.57,226.65"/>
    </edge>
    <edge id=":1910179522_0" function="internal">
        <lane id=":1910179522_0_0" index="0" allow="bicycle" speed="4.19" length="3.25" width="2.00" shape="210.66,236.32 209.88,235.52 209.17,235.09 208.53,235.03 207.95,235.34"/>
    </edge>
    <edge id=":1910179522_1" function="internal">
        <lane id=":1910179522_1_0" index="0" disallow="tram rail_urban rail rail_electric rail_fast ship container cable_car subway aircraft wheelchair scooter drone" speed="27.78" length="5.34" shape="211.12,235.94 210.11,234.73 209.37,233.93 208.55,233.21 207.32,232.22"/>
    </edge>
    <edge id=":1910179522_2" function="internal">
        <lane id=":1910179522_2_0" index="0" allow="bicycle" speed="5.56" length="5.09" width="2.00" shape="211.56,231.75 207.95,235.34"/>
    </edge>
    <edge id=":1910179522_3" function="internal">
        <lane id=":1910179522_3_0" index="0" allow="bicycle" speed="5.13" length="5.25" width="2.00" shape="211.56,231.75 210.34,232.80 209.16,233.30 208.03,233.27 206.94,232.69"/>
    </edge>
    <edge id=":292332567_0" function="internal">
        <lane id=":292332567_0_0" index="0" disallow="tram rail_urban rail rail_electric rail_fast ship container cable_car subway aircraft wheelchair scooter drone" speed="13.82" length="12.06" shape="217.35,210.24 216.08,213.67 215.59,216.30 215.73,218.83 216.35,221.96"/>
    </edge>
    <edge id=":292332567_1" function="internal">
        <lane id=":292332567_1_0" index="0" disallow="tram rail_urban rail rail_electric rail_fast ship container cable_car subway aircraft wheelchair scooter drone" speed="22.22" length="12.16" shape="217.35,210.24 215.84,213.53 214.48,215.63 212.76,217.48 210.13,220.02"/>
        <lane id=":292332567_1_1" index="1" disallow="tram rail_urban rail rail_electric rail_fast ship container cable_car subway aircraft wheelchair scooter drone" speed="15.78" length="12.16" shape="214.41,209.00 212.99,212.25 211.74,214.38 210.04,216.16 207.25,218.34"/>
    </edge>
    <edge id=":6294214964_0" function="internal">
        <lane id=":6294214964_0_0" index="0" allow="bicycle" speed="5.56" length="4.85" width="2.00" shape="178.63,155.58 179.61,156.64 180.30,157.34 181.04,157.99 182.16,158.90"/>
    </edge>
    <edge id=":6294214964_1" function="internal">
        <lane id=":6294214964_1_0" index="0" allow="bicycle" speed="4.11" length="3.23" width="2.00" shape="179.28,158.44 179.82,158.06 180.49,158.01 181.26,158.29 182.16,158.90"/>
    </edge>
    <edge id=":6294214968_0" function="internal">
        <lane id=":6294214968_0_0" index="0" allow="bicycle" speed="5.56" length="4.68" width="2.00" shape="203.70,160.02 205.00,159.53 205.85,159.11 206.64,158.57 207.72,157.70"/>
    </edge>
    <edge id=":6294214968_1" function="internal">
        <lane id=":6294214968_1_0" index="0" allow="bicycle" speed="4.47" length="3.22" width="2.00" shape="203.70,160.02 204.68,159.76 205.50,159.74 206.17,159.96 206.68,160.42"/>
    </edge>
    <edge id=":6294214969_0" function="internal">
        <lane id=":6294214969_0_0" index="0" allow="bicycle" speed="5.56" length="4.83" width="2.00" shape="229.54,176.11 228.75,177.30 228.25,178.15 227.81,179.03 227.24,180.34"/>
    </edge>
    <edge id=":6294214969_1" function="internal">
        <lane id=":6294214969_1_0" index="0" allow="bicycle" speed="4.22" length="3.21" width="2.00" shape="226.95,177.42 227.43,177.88 227.64,178.52 227.57,179.34 227.24,180.34"/>
    </edge>
    <edge id=":6294214977_0" function="internal">
        <lane id=":6294214977_0_0" index="0" allow="bicycle" speed="5.56" length="4.77" width="2.00" shape="175.18,234.21 173.89,234.80 173.04,235.25 172.23,235.79 171.10,236.65"/>
    </edge>
    <edge id=":6294214977_1" function="internal">
        <lane id=":6294214977_1_0" index="0" allow="bicycle" speed="4.22" length="3.21" width="2.00" shape="175.18,234.21 174.19,234.56 173.37,234.64 172.73,234.44 172.26,233.97"/>
    </edge>
    <edge id=":6294214978_0" function="internal">
        <lane id=":6294214978_0_0" index="0" allow="bicycle" speed="4.26" length="3.43" width="2.00" shape="154.77,219.47 154.18,218.96 153.91,218.28 153.95,217.44 154.30,216.42"/>
    </edge>
    <edge id=":6294214978_1" function="internal">
        <lane id=":6294214978_1_0" index="0" allow="bicycle" speed="5.56" length="4.93" width="2.00" shape="152.07,220.82 154.30,216.42"/>
    </edge>
    <edge id=":6294219185_0" function="internal">
        <lane id=":6294219185_0_0" index="0" allow="bicycle" speed="5.56" length="4.60" width="2.00" shape="164.41,168.21 164.64,166.87 164.70,165.93 164.60,164.99 164.32,163.66"/>
    </edge>
    <edge id=":6294219185_1" function="internal">
        <lane id=":6294219185_1_0" index="0" allow="bicycle" speed="4.26" length="2.99" width="2.00" shape="164.41,168.21 164.66,167.22 165.01,166.51 165.44,166.06 165.98,165.89"/>
    </edge>
    <edge id=":6294219186_0" function="internal">
        <lane id=":6294219186_0_0" index="0" allow="bicycle" speed="5.56" length="4.75" width="2.00" shape="220.37,221.59 220.49,222.99 220.64,223.94 220.91,224.87 221.39,226.20"/>
    </edge>
    <edge id=":6294219186_1" function="internal">
        <lane id=":6294219186_1_0" index="0" allow="bicycle" speed="4.51" length="3.17" width="2.00" shape="220.37,221.59 220.36,222.59 220.16,223.38 219.79,223.96 219.24,224.33"/>
    </edge>
    <edge id=":6294219187_0" function="internal">
        <lane id=":6294219187_0_0" index="0" allow="bicycle" speed="5.56" length="4.54" width="2.00" shape="208.22,238.21 207.49,237.08 206.90,236.36 206.18,235.78 205.05,235.06"/>
    </edge>
    <edge id=":6294219187_1" function="internal">
        <lane id=":6294219187_1_0" index="0" allow="bicycle" speed="4.33" length="2.96" width="2.00" shape="207.80,235.47 207.32,235.73 206.69,235.75 205.94,235.52 205.05,235.06"/>
    </edge>
    <edge id=":6308687378_0" function="internal">
        <lane id=":6308687378_0_0" index="0" allow="bicycle" speed="13.89" length="9.40" width="2.00" shape="163.74,243.08 161.57,244.83 159.98,245.93 158.49,247.11 156.57,249.11"/>
    </edge>
    <edge id=":6308687378_1" function="internal">
        <lane id=":6308687378_1_0" index="0" disallow="tram rail_urban rail rail_electric rail_fast ship container cable_car subway aircraft wheelchair scooter drone" speed="22.22" length="9.45" shape="161.75,241.03 156.12,248.72"/>
        <lane id=":6308687378_1_1" index="1" disallow="tram rail_urban rail rail_electric rail_fast ship container cable_car subway aircraft wheelchair scooter drone" speed="22.22" length="9.45" shape="159.22,239.07 153.69,246.63"/>
    </edge>
    <edge id=":6308687885_0" function="internal">
        <lane id=":6308687885_0_0" index="0" allow="bicycle" speed="12.50" length="23.13" width="2.00" shape="117.92,266.36 122.72,261.10 126.66,256.17 129.87,251.85 132.50,248.42"/>
    </edge>
    <edge id=":6308687885_1" function="internal">
        <lane id=":6308687885_1_0" index="0" disallow="tram rail_urban rail rail_electric rail_fast ship container cable_car subway aircraft wheelchair scooter drone" speed="19.44" length="23.58" shape="118.35,266.78 134.76,249.85"/>
        <lane id=":6308687885_1_1" index="1" disallow="tram rail_urban rail rail_electric rail_fast ship container cable_car subway aircraft wheelchair scooter drone" speed="19.44" length="23.58" shape="120.62,269.03 137.04,252.11"/>
    </edge>
    <edge id=":6308687896_0" function="internal">
        <lane id=":6308687896_0_0" index="0" allow="bicycle" speed="15.28" length="12.59" width="2.00" shape="220.80,144.99 223.28,142.97 225.50,141.55 227.84,139.90 230.66,137.21"/>
    </edge>
    <edge id=":6308687896_1" function="internal">
        <lane id=":6308687896_1_0" index="0" disallow="tram rail_urban rail rail_electric rail_fast ship container cable_car subway aircraft wheelchair scooter drone" speed="25.00" length="13.00" shape="222.36,147.25 231.10,137.62"/>
        <lane id=":6308687896_1_1" index="1" disallow="tram rail_urban rail rail_electric rail_fast ship container cable_car subway aircraft wheelchair scooter drone" speed="25.00" length="13.00" shape="224.72,149.40 233.47,139.77"/>
    </edge>
    <edge id=":6308687905_0" function="internal">
        <lane id=":6308687905_0_0" index="0" allow="bicycle" speed="16.67" length="6.89" width="2.00" shape="219.53,255.22 218.57,253.46 217.58,252.46 216.50,251.51 215.28,249.88"/>
    </edge>
    <edge id=":6308687905_1" function="internal">
        <lane id=":6308687905_1_0" index="0" disallow="tram rail_urban rail rail_electric rail_fast ship container cable_car subway aircraft wheelchair scooter drone" speed="27.78" length="6.95" shape="220.08,255.00 217.79,248.43"/>
    </edge>
    <edge id=":665076015_0" function="internal">
        <lane id=":665076015_0_0" index="0" disallow="tram rail_urban rail rail_electric rail_fast ship container cable_car subway aircraft wheelchair scooter drone" speed="12.05" length="10.60" shape="165.40,177.42 167.15,174.85 168.02,172.82 168.28,170.63 168.21,167.56"/>
    </edge>
    <edge id=":665076015_1" function="internal">
        <lane id=":665076015_1_0" index="0" disallow="tram rail_urban rail rail_electric rail_fast ship container cable_car subway aircraft wheelchair scooter drone" speed="16.96" length="11.62" shape="165.40,177.42 167.53,174.65 169.24,172.92 171.29,171.60 174.44,170.07"/>
        <lane id=":665076015_1_1" index="1" disallow="tram rail_urban rail rail_electric rail_fast ship container cable_car subway aircraft wheelchair scooter drone" speed="16.60" length="11.62" shape="167.96,179.33 170.04,176.71 171.73,175.12 173.75,173.94 176.79,172.50"/>
    </edge>
    <edge id=":665076018_0" function="internal">
        <lane id=":665076018_0_0" index="0" disallow="tram rail_urban rail rail_electric rail_fast ship container cable_car subway aircraft wheelchair scooter drone" speed="18.32" length="12.60" shape="165.98,217.67 163.39,214.93 161.92,212.76 160.93,210.31 159.76,206.68"/>
        <lane id=":665076018_0_1" index="1" disallow="tram rail_urban rail rail_electric rail_fast ship container cable_car subway aircraft wheelchair scooter drone" speed="17.96" length="12.60" shape="168.98,216.13 166.45,213.51 164.98,211.47 163.95,209.15 162.80,205.68"/>
    </edge>
    <edge id=":665076018_2" function="internal">
        <lane id=":665076018_2_0" index="0" disallow="tram rail_urban rail rail_electric rail_fast ship container cable_car subway aircraft wheelchair scooter drone" speed="12.09" length="12.78" shape="158.17,218.23 159.66,214.96 160.53,212.53 160.61,210.07 159.76,206.68"/>
        <lane id=":665076018_2_1" index="1" disallow="tram rail_urban rail rail_electric rail_fast ship container cable_car subway aircraft wheelchair scooter drone" speed="12.70" length="12.78" shape="161.53,218.53 163.11,214.90 163.90,212.19 163.81,209.45 162.80,205.68"/>
    </edge>
    <edge id=":665076019_0" function="internal">
        <lane id=":665076019_0_0" index="0" disallow="tram rail_urban rail rail_electric rail_fast ship container cable_car subway aircraft wheelchair scooter drone" speed="14.24" length="12.23" shape="184.90,227.80 181.37,227.52 178.94,227.97 176.61,229.07 173.38,230.74"/>
        <lane id=":665076019_0_1" index="1" disallow="tram rail_urban rail rail_electric rail_fast ship container cable_car subway aircraft wheelchair scooter drone" speed="14.64" length="12.93" shape="184.90,227.80 181.12,227.00 178.42,226.37 175.82,226.42 172.35,227.68"/>
    </edge>
    <edge id=":665076019_2" function="internal">
        <lane id=":665076019_2_0" index="0" disallow="tram rail_urban rail rail_electric rail_fast ship container cable_car subway aircraft wheelchair scooter drone" speed="19.11" length="13.16" shape="184.90,227.80 180.98,227.21 178.29,226.57 175.82,225.41 172.54,223.23"/>
        <lane id=":665076019_2_1" index="1" disallow="tram rail_urban rail rail_electric rail_fast ship container cable_car subway aircraft wheelchair scooter drone" speed="18.77" length="13.16" shape="185.38,224.64 181.61,224.03 179.05,223.35 176.70,222.15 173.54,220.02"/>
    </edge>
    <edge id=":665076021_0" function="internal">
        <lane id=":665076021_0_0" index="0" disallow="tram rail_urban rail rail_electric rail_fast ship container cable_car subway aircraft wheelchair scooter drone" speed="12.67" length="11.63" shape="205.10,230.65 202.41,228.98 200.18,227.99 197.67,227.61 194.19,227.77"/>
    </edge>
    <edge id=":665076021_1" function="internal">
        <lane id=":665076021_1_0" index="0" disallow="tram rail_urban rail rail_electric rail_fast ship container cable_car subway aircraft wheelchair scooter drone" speed="21.49" length="11.72" shape="205.19,223.70 202.12,225.44 199.95,226.58 197.64,227.29 194.19,227.77"/>
        <lane id=":665076021_1_1" index="1" disallow="tram rail_urban rail rail_electric rail_fast ship container cable_car subway aircraft wheelchair scooter drone" speed="15.16" length="11.72" shape="204.41,220.45 201.64,222.44 199.55,223.58 197.26,224.18 193.88,224.58"/>
    </edge>
    <edge id=":665076025_0" function="internal">
        <lane id=":665076025_0_0" index="0" disallow="tram rail_urban rail rail_electric rail_fast ship container cable_car subway aircraft wheelchair scooter drone" speed="12.43" length="12.51" shape="222.58,180.29 220.85,183.35 219.68,185.58 219.22,187.90 219.65,191.24"/>
        <lane id=":665076025_0_1" index="1" disallow="tram rail_urban rail rail_electric rail_fast ship container cable_car subway aircraft wheelchair scooter drone" speed="13.17" length="12.51" shape="219.39,179.48 217.52,182.95 216.34,185.50 215.98,188.15 216.52,191.93"/>
    </edge>
    <edge id=":665076025_2" function="internal">
        <lane id=":665076025_2_0" index="0" disallow="tram rail_urban rail rail_electric rail_fast ship container cable_car subway aircraft wheelchair scooter drone" speed="20.09" length="12.47" shape="214.77,179.72 216.95,182.75 218.13,185.05 218.85,187.56 219.65,191.24"/>
        <lane id=":665076025_2_1" index="1" disallow="tram rail_urban rail rail_electric rail_fast ship container cable_car subway aircraft wheelchair scooter drone" speed="19.74" length="12.47" shape="211.64,180.89 213.77,183.80 214.97,185.99 215.73,188.39 216.52,191.93"/>
    </edge>
    <edge id=":665076026_0" function="internal">
        <lane id=":665076026_0_0" index="0" disallow="tram rail_urban rail rail_electric rail_fast ship container cable_car subway aircraft wheelchair scooter drone" speed="13.80" length="14.07" shape="192.77,166.59 196.92,166.92 199.85,166.81 202.57,165.89 206.07,163.75"/>
        <lane id=":665076026_0_1" index="1" disallow="tram rail_urban rail rail_electric rail_fast ship container cable_car subway aircraft wheelchair scooter drone" speed="17.09" length="14.74" shape="192.77,166.59 197.12,167.34 200.21,168.16 203.16,168.28 207.10,166.90"/>
    </edge>
    <edge id=":665076026_2" function="internal">
        <lane id=":665076026_2_0" index="0" disallow="tram rail_urban rail rail_electric rail_fast ship container cable_car subway aircraft wheelchair scooter drone" speed="17.82" length="14.73" shape="192.77,166.59 197.20,167.05 200.20,167.79 202.96,169.21 206.66,171.70"/>
        <lane id=":665076026_2_1" index="1" disallow="tram rail_urban rail rail_electric rail_fast ship container cable_car subway aircraft wheelchair scooter drone" speed="17.37" length="14.73" shape="192.51,169.78 196.70,170.25 199.53,171.04 202.12,172.46 205.61,174.87"/>
    </edge>
    <edge id=":665076028_0" function="internal">
        <lane id=":665076028_0_0" index="0" disallow="tram rail_urban rail rail_electric rail_fast ship container cable_car subway aircraft wheelchair scooter drone" speed="12.23" length="11.51" shape="179.25,162.09 181.58,164.17 183.66,165.36 186.10,165.98 189.55,166.33"/>
    </edge>
    <edge id=":665076028_1" function="internal">
        <lane id=":665076028_1_0" index="0" disallow="tram rail_urban rail rail_electric rail_fast ship container cable_car subway aircraft wheelchair scooter drone" speed="16.31" length="11.98" shape="177.72,168.53 181.02,167.03 183.43,166.29 185.94,166.11 189.55,166.33"/>
        <lane id=":665076028_1_1" index="1" disallow="tram rail_urban rail rail_electric rail_fast ship container cable_car subway aircraft wheelchair scooter drone" speed="15.90" length="11.98" shape="178.11,171.88 181.24,170.42 183.50,169.62 185.87,169.36 189.30,169.52"/>
    </edge>

    <edge id="180596715#0" from="292332567" to="1910179513" priority="11" type="highway.secondary" spreadType="center" shape="215.75,209.92 215.66,215.13 216.24,221.47 217.07,225.22">
        <lane id="180596715#0_0" index="0" disallow="tram rail_urban rail rail_electric rail_fast ship container cable_car subway aircraft wheelchair scooter drone" speed="27.78" length="0.55" shape="216.35,221.96 216.46,222.49"/>
        <param key="ref" value="D 22"/>
    </edge>
    <edge id="180596715#1" from="1910179513" to="480012949" priority="11" type="highway.secondary" spreadType="center" shape="217.07,225.22 219.54,231.29 222.93,240.32 226.09,250.54 228.43,262.06 229.63,274.72 230.99,285.12">
        <lane id="180596715#1_0" index="0" disallow="tram rail_urban rail rail_electric rail_fast ship container cable_car subway aircraft wheelchair scooter drone" speed="27.78" length="59.11" shape="218.01,227.53 219.54,231.29 222.93,240.32 226.09,250.54 228.43,262.06 229.63,274.72 230.96,284.88"/>
        <param key="ref" value="D 22"/>
    </edge>
    <edge id="180596716#0" from="665076026" to="1910179482" priority="12" type="highway.primary" spreadType="center" shape="194.50,168.34 200.59,167.85 203.03,167.14 206.43,165.45 209.04,163.67">
        <lane id="180596716#0_0" index="0" disallow="tram rail_urban rail rail_electric rail_fast ship container cable_car subway aircraft wheelchair scooter drone" speed="25.00" length="0.28" shape="206.07,163.75 206.24,163.64"/>
        <lane id="180596716#0_1" index="1" disallow="tram rail_urban rail rail_electric rail_fast ship container cable_car subway aircraft wheelchair scooter drone" speed="25.00" length="0.28" shape="207.10,166.90 207.24,166.83 207.41,166.71"/>
        <param key="ref" value="D 915"/>
    </edge>
    <edge id="180596716#1" from="1910179482" to="6308687896" priority="12" type="highway.primary" spreadType="center" shape="209.04,163.67 212.16,160.88 215.15,157.55 233.18,137.71">
        <lane id="180596716#1_0" index="0" disallow="tram rail_urban rail rail_electric rail_fast ship container cable_car subway aircraft wheelchair scooter drone" speed="25.00" length="18.30" shape="210.08,160.59 211.02,159.75 213.97,156.48 222.36,147.25"/>
        <lane id="180596716#1_1" index="1" disallow="tram rail_urban rail rail_electric rail_fast ship container cable_car subway aircraft wheelchair scooter drone" speed="25.00" length="18.30" shape="212.22,162.98 213.29,162.02 216.34,158.63 224.72,149.40"/>
        <param key="ref" value="D 915"/>
    </edge>
    <edge id="180596716#2" from="6308687896" to="6308687377" priority="12" type="highway.primary" spreadType="center">