<?xml version="1.0" encoding="UTF-8"?>

<!-- generated on 2024-09-03 01:37:42 by Eclipse SUMO netconvert Version 1.20.0
<configuration xmlns:xsi="http://www.w3.org/2001/XMLSchema-instance" xsi:noNamespaceSchemaLocation="http://sumo.dlr.de/xsd/netconvertConfiguration.xsd">

    <input>
        <osm-files value="train_files/roundabout/middle/osm_files/map(10).osm"/>
    </input>

    <output>
        <output-file value="train_files/roundabout/middle/outputs/map(10)_dict/map(10)/map(10).net.xml"/>
    </output>

    <projection>
        <proj.utm value="true"/>
    </projection>

    <building_defaults>
        <default.junctions.keep-clear value="false"/>
    </building_defaults>

</configuration>
-->

<net version="1.20" junctionCornerDetail="5" limitTurnSpeed="5.50" xmlns:xsi="http://www.w3.org/2001/XMLSchema-instance" xsi:noNamespaceSchemaLocation="http://sumo.dlr.de/xsd/net_file.xsd">

    <location netOffset="-443693.30,-5407611.24" convBoundary="0.00,0.00,791.30,357.80" origBoundary="2.232903,48.818995,2.243714,48.822150" projParameter="+proj=utm +zone=31 +ellps=WGS84 +datum=WGS84 +units=m +no_defs"/>

    <type id="highway.cycleway" priority="1" numLanes="1" speed="5.56" allow="bicycle" oneway="0" width="2.00"/>
    <type id="highway.footway" priority="1" numLanes="1" speed="2.78" allow="pedestrian" oneway="1" width="2.00"/>
    <type id="highway.primary" priority="12" numLanes="2" speed="27.78" disallow="tram rail_urban rail rail_electric rail_fast ship container cable_car subway aircraft wheelchair scooter drone" oneway="0"/>
    <type id="highway.steps" priority="1" numLanes="1" speed="1.39" allow="pedestrian" oneway="1" width="2.00"/>

    <edge id=":1613052579_0" function="internal">
        <lane id=":1613052579_0_0" index="0" disallow="tram rail_urban rail rail_electric rail_fast ship container cable_car subway aircraft wheelchair scooter drone" speed="13.89" length="0.30" shape="705.17,26.08 705.15,25.76"/>
        <lane id=":1613052579_0_1" index="1" disallow="tram rail_urban rail rail_electric rail_fast ship container cable_car subway aircraft wheelchair scooter drone" speed="13.89" length="0.30" shape="708.36,25.86 708.34,25.58"/>
    </edge>
    <edge id=":2563037923_0" function="internal">
        <lane id=":2563037923_0_0" index="0" disallow="tram rail_urban rail rail_electric rail_fast ship container cable_car subway aircraft wheelchair scooter drone" speed="10.35" length="9.85" shape="730.36,92.29 731.47,94.65 732.24,96.39 733.37,97.71 735.55,98.80"/>
        <lane id=":2563037923_0_1" index="1" disallow="tram rail_urban rail rail_electric rail_fast ship container cable_car subway aircraft wheelchair scooter drone" speed="11.60" length="9.85" shape="727.56,93.82 729.01,96.78 730.10,98.89 731.65,100.47 734.47,101.82"/>
    </edge>
    <edge id=":2563037923_2" function="internal">
        <lane id=":2563037923_2_0" index="0" disallow="tram rail_urban rail rail_electric rail_fast ship container cable_car subway aircraft wheelchair scooter drone" speed="16.61" length="10.29" shape="725.21,97.77 728.31,97.39 730.48,97.37 732.59,97.81 735.55,98.80"/>
        <lane id=":2563037923_2_1" index="1" disallow="tram rail_urban rail rail_electric rail_fast ship container cable_car subway aircraft wheelchair scooter drone" speed="11.11" length="10.29" shape="724.88,101.06 727.62,100.20 729.65,100.16 731.69,100.76 734.47,101.82"/>
    </edge>
    <edge id=":2563048533_0" function="internal">
        <lane id=":2563048533_0_0" index="0" disallow="tram rail_urban rail rail_electric rail_fast ship container cable_car subway aircraft wheelchair scooter drone" speed="13.89" length="4.99" shape="714.32,93.41 713.45,88.51"/>
        <lane id=":2563048533_0_1" index="1" disallow="tram rail_urban rail rail_electric rail_fast ship container cable_car subway aircraft wheelchair scooter drone" speed="13.89" length="4.99" shape="717.47,92.86 716.59,87.94"/>
    </edge>
    <edge id=":2563048547_0" function="internal">
        <lane id=":2563048547_0_0" index="0" disallow="tram rail_urban rail rail_electric rail_fast ship container cable_car subway aircraft wheelchair scooter drone" speed="13.89" length="4.58" shape="751.39,110.51 752.63,110.85 753.48,111.03 754.36,111.15 755.63,111.30"/>
        <lane id=":2563048547_0_1" index="1" disallow="tram rail_urban rail rail_electric rail_fast ship container cable_car subway aircraft wheelchair scooter drone" speed="13.89" length="4.58" shape="750.49,113.58 751.88,113.97 752.84,114.17 753.81,114.30 755.24,114.47"/>
    </edge>
    <edge id=":2563050487_0" function="internal">
        <lane id=":2563050487_0_0" index="0" disallow="tram rail_urban rail rail_electric rail_fast ship container cable_car subway aircraft wheelchair scooter drone" speed="10.40" length="9.55" shape="749.33,123.90 746.82,124.09 744.98,124.20 743.40,124.77 741.63,126.35"/>
        <lane id=":2563050487_0_1" index="1" disallow="tram rail_urban rail rail_electric rail_fast ship container cable_car subway aircraft wheelchair scooter drone" speed="11.66" length="9.55" shape="748.89,120.73 745.71,121.04 743.43,121.31 741.46,122.16 739.23,124.24"/>
    </edge>
    <edge id=":2563050487_2" function="internal">
        <lane id=":2563050487_2_0" index="0" disallow="tram rail_urban rail rail_electric rail_fast ship container cable_car subway aircraft wheelchair scooter drone" speed="15.90" length="9.46" shape="746.04,117.21 745.33,120.19 744.66,122.21 743.57,124.01 741.63,126.35"/>
        <lane id=":2563050487_2_1" index="1" disallow="tram rail_urban rail rail_electric rail_fast ship container cable_car subway aircraft wheelchair scooter drone" speed="14.51" length="9.46" shape="742.89,116.65 742.30,119.12 741.74,120.79 740.84,122.29 739.23,124.24"/>
    </edge>
    <edge id=":3685653370_0" function="internal">
        <lane id=":3685653370_0_0" index="0" allow="pedestrian bicycle" speed="9.72" length="51.27" width="2.00" shape="722.51,31.02 722.91,39.74 723.58,54.81 724.66,70.75 726.27,82.11"/>
    </edge>
    <edge id=":3685653370_1" function="internal">
        <lane id=":3685653370_1_0" index="0" disallow="tram rail_urban rail rail_electric rail_fast ship container cable_car subway aircraft wheelchair scooter drone" speed="13.89" length="51.81" shape="719.82,30.94 721.01,41.76 722.57,56.62 724.36,71.43 726.27,82.11"/>
        <lane id=":3685653370_1_1" index="1" disallow="tram rail_urban rail rail_electric rail_fast ship container cable_car subway aircraft wheelchair scooter drone" speed="13.89" length="51.81" shape="716.65,31.35 717.85,42.24 719.43,57.24 721.26,72.19 723.18,82.94"/>
    </edge>
    <edge id=":3685653373_0" function="internal">
        <lane id=":3685653373_0_0" index="0" disallow="tram rail_urban rail rail_electric rail_fast ship container cable_car subway aircraft wheelchair scooter drone" speed="13.89" length="6.05" shape="755.48,123.14 749.54,123.87"/>
        <lane id=":3685653373_0_1" index="1" disallow="tram rail_urban rail rail_electric rail_fast ship container cable_car subway aircraft wheelchair scooter drone" speed="13.89" length="6.05" shape="755.15,119.96 749.09,120.70"/>
    </edge>
    <edge id=":3685653376_0" function="internal">
        <lane id=":3685653376_0_0" index="0" disallow="tram rail_urban rail rail_electric rail_fast ship container cable_car subway aircraft wheelchair scooter drone" speed="15.63" length="11.14" shape="705.70,117.44 707.95,115.32 709.64,113.91 710.91,112.26 711.93,109.47"/>
        <lane id=":3685653376_0_1" index="1" disallow="tram rail_urban rail rail_electric rail_fast ship container cable_car subway aircraft wheelchair scooter drone" speed="16.77" length="11.14" shape="708.03,119.63 710.60,117.17 712.48,115.48 713.88,113.52 715.03,110.28"/>
    </edge>
    <edge id=":3685653376_2" function="internal">
        <lane id=":3685653376_2_0" index="0" disallow="tram rail_urban rail rail_electric rail_fast ship container cable_car subway aircraft wheelchair scooter drone" speed="16.57" length="11.48" shape="712.24,121.09 711.39,117.68 711.00,115.27 711.16,112.86 711.93,109.47"/>
        <lane id=":3685653376_2_1" index="1" disallow="tram rail_urban rail rail_electric rail_fast ship container cable_car subway aircraft wheelchair scooter drone" speed="11.00" length="11.48" shape="715.81,121.09 714.83,118.82 714.37,116.26 714.44,113.41 715.03,110.28"/>
    </edge>
    <edge id=":3685653377_0" function="internal">
        <lane id=":3685653377_0_0" index="0" disallow="tram rail_urban rail rail_electric rail_fast ship container cable_car subway aircraft wheelchair scooter drone" speed="13.89" length="4.56" shape="696.90,122.44 698.11,122.01 698.93,121.69 699.74,121.33 700.88,120.74"/>
        <lane id=":3685653377_0_1" index="1" disallow="tram rail_urban rail rail_electric rail_fast ship container cable_car subway aircraft wheelchair scooter drone" speed="13.89" length="4.56" shape="697.99,125.45 699.33,124.97 700.24,124.62 701.12,124.22 702.38,123.56"/>
    </edge>
    <edge id=":3685653379_0" function="internal">
        <lane id=":3685653379_0_0" index="0" disallow="tram rail_urban rail rail_electric rail_fast ship container cable_car subway aircraft wheelchair scooter drone" speed="9.11" length="8.10" shape="721.48,130.65 720.16,130.32 718.41,130.39 716.23,130.88 713.63,131.78"/>
        <lane id=":3685653379_0_1" index="1" disallow="tram rail_urban rail rail_electric rail_fast ship container cable_car subway aircraft wheelchair scooter drone" speed="9.79" length="9.42" shape="721.48,130.65 718.62,129.42 716.17,128.69 714.11,128.49 712.46,128.80"/>
    </edge>
    <edge id=":3685653379_2" function="internal">
        <lane id=":3685653379_2_0" index="0" disallow="tram rail_urban rail rail_electric rail_fast ship container cable_car subway aircraft wheelchair scooter drone" speed="13.52" length="9.97" shape="721.48,130.65 718.70,129.28 716.88,128.11 715.43,126.54 713.78,123.95"/>
        <lane id=":3685653379_2_1" index="1" disallow="tram rail_urban rail rail_electric rail_fast ship container cable_car subway aircraft wheelchair scooter drone" speed="12.86" length="9.97" shape="722.89,127.78 720.40,126.51 718.81,125.40 717.55,123.92 716.08,121.55"/>
    </edge>
    <edge id=":3882472678_0" function="internal">
        <lane id=":3882472678_0_0" index="0" disallow="tram rail_urban rail rail_electric rail_fast ship container cable_car subway aircraft wheelchair scooter drone" speed="13.89" length="4.33" shape="727.10,85.20 727.40,86.34 727.63,87.10 727.95,87.84 728.50,88.88"/>
        <lane id=":3882472678_0_1" index="1" disallow="tram rail_urban rail rail_electric rail_fast ship container cable_car subway aircraft wheelchair scooter drone" speed="13.89" length="4.33" shape="724.01,86.03 724.37,87.38 724.65,88.30 725.04,89.18 725.69,90.41"/>
    </edge>
    <edge id=":593278237_0" function="internal">
        <lane id=":593278237_0_0" index="0" disallow="tram rail_urban rail rail_electric rail_fast ship container cable_car subway aircraft wheelchair scooter drone" speed="10.02" length="8.50" shape="714.23,104.89 715.37,102.75 715.66,101.06 715.41,99.25 714.90,96.77"/>
        <lane id=":593278237_0_1" index="1" disallow="tram rail_urban rail rail_electric rail_fast ship container cable_car subway aircraft wheelchair scooter drone" speed="10.79" length="9.92" shape="714.23,104.89 716.03,102.52 717.42,100.82 718.17,98.99 718.06,96.22"/>
    </edge>
    <edge id=":593278237_2" function="internal">
        <lane id=":593278237_2_0" index="0" disallow="tram rail_urban rail rail_electric rail_fast ship container cable_car subway aircraft wheelchair scooter drone" speed="13.27" length="10.59" shape="714.23,104.89 716.09,102.29 717.72,100.76 719.73,99.69 722.73,98.48"/>
        <lane id=":593278237_2_1" index="1" disallow="tram rail_urban rail rail_electric rail_fast ship container cable_car subway aircraft wheelchair scooter drone" speed="12.84" length="10.59" shape="716.64,107.06 718.39,104.64 719.93,103.24 721.83,102.27 724.65,101.15"/>
    </edge>
    <edge id=":593278250_0" function="internal">
        <lane id=":593278250_0_0" index="0" disallow="tram rail_urban rail rail_electric rail_fast ship container cable_car subway aircraft wheelchair scooter drone" speed="10.76" length="8.30" shape="743.95,106.27 745.46,108.13 746.83,109.12 748.48,109.70 750.86,110.36"/>
        <lane id=":593278250_0_1" index="1" disallow="tram rail_urban rail rail_electric rail_fast ship container cable_car subway aircraft wheelchair scooter drone" speed="11.62" length="9.73" shape="743.95,106.27 745.40,108.81 746.28,110.79 747.51,112.29 749.96,113.43"/>
    </edge>
    <edge id=":593278250_2" function="internal">
        <lane id=":593278250_2_0" index="0" disallow="tram rail_urban rail rail_electric rail_fast ship container cable_car subway aircraft wheelchair scooter drone" speed="12.95" length="10.12" shape="743.95,106.27 745.58,108.96 746.19,111.08 746.22,113.37 746.10,116.61"/>
        <lane id=":593278250_2_1" index="1" disallow="tram rail_urban rail rail_electric rail_fast ship container cable_car subway aircraft wheelchair scooter drone" speed="9.58" length="10.12" shape="740.98,107.59 742.24,109.75 742.99,111.94 743.22,114.18 742.94,116.45"/>
    </edge>
    <edge id=":6137464342_0" function="internal">
        <lane id=":6137464342_0_0" index="0" allow="pedestrian bicycle" speed="6.47" length="5.51" width="2.00" shape="717.33,9.79 717.65,10.92 718.37,11.93 719.48,12.82 720.97,13.57"/>
    </edge>
    <edge id=":6137464342_1" function="internal">
        <lane id=":6137464342_1_0" index="0" disallow="tram rail_urban rail rail_electric rail_fast ship container cable_car subway aircraft wheelchair scooter drone" speed="13.89" length="5.81" shape="717.33,9.79 717.86,15.61"/>
        <lane id=":6137464342_1_1" index="1" disallow="tram rail_urban rail rail_electric rail_fast ship container cable_car subway aircraft wheelchair scooter drone" speed="13.89" length="5.81" shape="714.14,10.14 714.68,15.89"/>
    </edge>
    <edge id=":8638190628_0" function="internal">
        <lane id=":8638190628_0_0" index="0" disallow="tram rail_urban rail rail_electric rail_fast ship container cable_car subway aircraft wheelchair scooter drone" speed="13.89" length="5.58" shape="705.83,134.42 704.15,134.88 702.99,135.14 701.81,135.30 700.07,135.48"/>
        <lane id=":8638190628_0_1" index="1" disallow="tram rail_urban rail rail_electric rail_fast ship container cable_car subway aircraft wheelchair scooter drone" speed="13.89" length="5.58" shape="704.94,131.34 703.43,131.76 702.38,131.99 701.31,132.14 699.75,132.30"/>
    </edge>

    <edge id="1214071321" from="3685653377" to="3685653376" priority="12" type="highway.primary" spreadType="center" shape="700.03,123.00 705.29,120.20 712.90,112.11">
        <lane id="1214071321_0" index="0" disallow="tram rail_urban rail rail_electric rail_fast ship container cable_car subway aircraft wheelchair scooter drone" speed="13.89" length="6.44" shape="700.88,120.74 704.31,118.92 705.70,117.44"/>
        <lane id="1214071321_1" index="1" disallow="tram rail_urban rail rail_electric rail_fast ship container cable_car subway aircraft wheelchair scooter drone" speed="13.89" length="6.44" shape="702.38,123.56 706.28,121.49 708.03,119.63"/>
        <param key="ref" value="D 7"/>
    </edge>
    <edge id="1214071322" from="3685653376" to="593278237" priority="12" type="highway.primary" spreadType="center" shape="712.90,112.11 713.54,109.65 714.57,107.32 715.96,105.18 717.66,103.28">
        <lane id="1214071322_0" index="0" disallow="tram rail_urban rail rail_electric rail_fast ship container cable_car subway aircraft wheelchair scooter drone" speed="27.78" length="4.38" shape="711.93,109.47 712.03,109.12 713.16,106.55 714.23,104.89"/>
        <lane id="1214071322_1" index="1" disallow="tram rail_urban rail rail_electric rail_fast ship container cable_car subway aircraft wheelchair scooter drone" speed="27.78" length="4.38" shape="715.03,110.28 715.06,110.18 715.98,108.08 716.64,107.06"/>
    </edge>
    <edge id="1217326884" from="593278237" to="2563037923" priority="12" type="highway.primary" spreadType="center" shape="717.66,103.28 720.87,100.95 724.55,99.47 728.49,98.94 732.43,99.39">
        <lane id="1217326884_0" index="0" disallow="tram rail_urban rail rail_electric rail_fast ship container cable_car subway aircraft wheelchair scooter drone" speed="27.78" length="1.42" shape="722.73,98.48 724.14,97.91 725.21,97.77"/>
        <lane id="1217326884_1" index="1" disallow="tram rail_urban rail rail_electric rail_fast ship container cable_car subway aircraft wheelchair scooter drone" speed="27.78" length="1.42" shape="724.65,101.15 724.88,101.06"/>
    </edge>
    <edge id="1217326885" from="2563048547" to="3713106045" priority="12" type="highway.primary" spreadType="center" shape="752.63,112.54 791.95,117.36">
        <lane id="1217326885_0" index="0" disallow="tram rail_urban rail rail_electric rail_fast ship container cable_car subway aircraft wheelchair scooter drone" speed="13.89" length="36.53" shape="755.63,111.30 791.89,115.74"/>
        <lane id="1217326885_1" index="1" disallow="tram rail_urban rail rail_electric rail_fast ship container cable_car subway aircraft wheelchair scooter drone" speed="13.89" length="36.53" shape="755.24,114.47 791.50,118.92"/>
        <param key="ref" value="D 7"/>
    </edge>
    <edge id="1217326886" from="4913061161" to="4890069708" priority="1" type="highway.footway" spreadType="center" shape="751.63,136.96 770.34,137.90 785.52,139.33">
        <lane id="1217326886_0" index="0" allow="pedestrian" speed="2.78" length="30.36" width="2.00" shape="754.13,137.09 770.34,137.90 784.41,139.22"/>
    </edge>
    <edge id="249998172#0" from="6137464343" to="6137464342" priority="12" type="highway.primary" spreadType="center">
        <lane id="249998172#0_0" index="0" disallow="tram rail_urban rail rail_electric rail_fast ship container cable_car subway aircraft wheelchair scooter drone" speed="13.89" length="9.64" shape="716.26,0.20 717.33,9.79"/>
        <lane id="249998172#0_1" index="1" disallow="tram rail_urban rail rail_electric rail_fast ship container cable_car subway aircraft wheelchair scooter drone" speed="13.89" length="9.64" shape="713.08,0.56 714.14,10.14"/>
        <param key="ref" value="D 989"/>
    </edge>
    <edge id="249998172#1" from="6137464342" to="3685653370" priority="12" type="highway.primary" spreadType="center" shape="715.90,11.50 716.37,16.90 716.69,19.35 725.20,84.28">
        <lane id="249998172#1_0" index="0" disallow="tram rail_urban rail rail_electric rail_fast ship container cable_car subway aircraft wheelchair scooter drone" speed="13.89" length="15.52" shape="717.86,15.61 717.96,16.73 718.27,19.14 719.82,30.94"/>
        <lane id="249998172#1_1" index="1" disallow="tram rail_urban rail rail_electric rail_fast ship container cable_car subway aircraft wheelchair scooter drone" speed="13.89" length="15.52" shape="714.68,15.89 714.78,17.08 715.10,19.56 716.65,31.35"/>
        <param key="ref" value="D 989"/>
    </edge>
    <edge id="249998172#2" from="3685653370" to="3882472678" priority="12" type="highway.primary" spreadType="center">
        <lane id="249998172#2_0" index="0" disallow="tram rail_urban rail rail_electric rail_fast ship container cable_car subway aircraft wheelchair scooter drone" speed="13.89" length="3.20" shape="726.27,82.11 727.10,85.20"/>
        <lane id="249998172#2_1" index="1" disallow="tram rail_urban rail rail_electric rail_fast ship container cable_car subway aircraft wheelchair scooter drone" speed="13.89" length="3.20" shape="723.18,82.94 724.01,86.03"/>
        <param key="ref" value="D 989"/>
    </edge>
    <edge id="249998172#3" from="3882472678" to="2563037923" priority="12" type="highway.primary" spreadType="center">
        <lane id="249998172#3_0" index="0" disallow="tram rail_urban rail rail_electric rail_fast ship container cable_car subway aircraft wheelchair scooter drone" speed="13.89" length="3.89" shape="728.50,88.88 730.36,92.29"/>
        <lane id="249998172#3_1" index="1" disallow="tram rail_urban rail rail_electric rail_fast ship container cable_car subway aircraft wheelchair scooter drone" speed="13.89" length="3.89" shape="725.69,90.41 727.56,93.82"/>
        <param key="ref" value="D 989"/>
    </edge>
    <edge id="364531485#0" from="593278250" to="2563050487" priority="12" type="highway.primary" spreadType="center" shape="743.84,109.97 744.54,113.35 744.50,116.80 743.70,120.17 742.20,123.28">
        <lane id="364531485#0_0" index="0" disallow="tram rail_urban rail rail_electric rail_fast ship container cable_car subway aircraft wheelchair scooter drone" speed="27.78" length="0.41" shape="746.10,116.61 746.09,117.00 746.04,117.21"/>
        <lane id="364531485#0_1" index="1" disallow="tram rail_urban rail rail_electric rail_fast ship container cable_car subway aircraft wheelchair scooter drone" speed="27.78" length="0.41" shape="742.94,116.45 742.89,116.65"/>
    </edge>
    <edge id="364531485#1" from="2563050487" to="3685653379" priority="12" type="highway.primary" spreadType="center" shape="742.20,123.28 738.77,127.18 734.27,129.78 729.17,130.78 724.01,130.11 719.34,127.82">
        <lane id="364531485#1_0" index="0" disallow="tram rail_urban rail rail_electric rail_fast ship container cable_car subway aircraft wheelchair scooter drone" speed="27.78" length="20.14" shape="741.63,126.35 739.80,128.43 734.84,131.30 729.22,132.40 723.54,131.67 721.48,130.65"/>
        <lane id="364531485#1_1" index="1" disallow="tram rail_urban rail rail_electric rail_fast ship container cable_car subway aircraft wheelchair scooter drone" speed="27.78" length="20.14" shape="739.23,124.24 737.74,125.92 733.70,128.26 729.11,129.16 724.47,128.56 722.89,127.78"/>
    </edge>
    <edge id="364531485#2" from="3685653379" to="3685653376" priority="12" type="highway.primary" spreadType="center" shape="719.34,127.82 716.10,124.74 713.84,120.90 712.75,116.57 712.90,112.11">
        <lane id="364531485#2_0" index="0" disallow="tram rail_urban rail rail_electric rail_fast ship container cable_car subway aircraft wheelchair scooter drone" speed="27.78" length="1.90" shape="713.78,123.95 712.35,121.51 712.24,121.09"/>
        <lane id="364531485#2_1" index="1" disallow="tram rail_urban rail rail_electric rail_fast ship container cable_car subway aircraft wheelchair scooter drone" speed="27.78" length="1.90" shape="716.08,121.55 715.81,121.09"/>
    </edge>
    <edge id="364531489#0" from="3685653379" to="8638190628" priority="12" type="highway.primary" spreadType="center" shape="719.34,127.82 709.31,131.75 702.95,133.58">
        <lane id="364531489#0_0" index="0" disallow="tram rail_urban rail rail_electric rail_fast ship container cable_car subway aircraft wheelchair scooter drone" speed="13.89" length="8.09" shape="713.63,131.78 709.83,133.27 705.83,134.42"/>
        <lane id="364531489#0_1" index="1" disallow="tram rail_urban rail rail_electric rail_fast ship container cable_car subway aircraft wheelchair scooter drone" speed="13.89" length="8.09" shape="712.46,128.80 708.80,130.23 704.94,131.34"/>
        <param key="ref" value="D 7"/>
    </edge>
    <edge id="364531489#1" from="8638190628" to="3685653378" priority="12" type="highway.primary" spreadType="center" shape="702.95,133.58 693.29,134.56 682.93,133.89 671.08,132.06 643.77,129.24">
        <lane id="364531489#1_0" index="0" disallow="tram rail_urban rail rail_electric rail_fast ship container cable_car subway aircraft wheelchair scooter drone" speed="13.89" length="56.11" shape="700.07,135.48 693.32,136.17 682.75,135.48 670.88,133.65 643.98,130.87"/>
        <lane id="364531489#1_1" index="1" disallow="tram rail_urban rail rail_electric rail_fast ship container cable_car subway aircraft wheelchair scooter drone" speed="13.89" length="56.11" shape="699.75,132.30 693.26,132.96 683.10,132.30 671.29,130.47 644.31,127.68"/>
        <param key="ref" value="D 7"/>
    </edge>
    <edge id="368473762" from="3713106045" to="3685653373" priority="12" type="highway.primary" spreadType="center" shape="791.36,123.69 760.86,120.99 752.42,121.85">
        <lane id="368473762_0" index="0" disallow="tram rail_urban rail rail_electric rail_fast ship container cable_car subway aircraft wheelchair scooter drone" speed="13.89" length="35.85" shape="790.88,125.26 760.87,122.59 755.48,123.14"/>
        <lane id="368473762_1" index="1" disallow="tram rail_urban rail rail_electric rail_fast ship container cable_car subway aircraft wheelchair scooter drone" speed="13.89" length="35.85" shape="791.16,122.07 760.85,119.38 755.15,119.96"/>
        <param key="ref" value="D 7"/>
    </edge>
    <edge id="46420072" from="3685653378" to="3685653377" priority="12" type="highway.primary" spreadType="center" shape="644.50,122.91 686.87,126.45 695.35,124.71 700.03,123.00">
        <lane id="46420072_0" index="0" disallow="tram rail_urban rail rail_electric rail_fast ship container cable_car subway aircraft wheelchair scooter drone" speed="13.89" length="53.16" shape="644.87,121.34 686.77,124.83 694.91,123.16 696.90,122.44"/>
        <lane id="46420072_1" index="1" disallow="tram rail_urban rail rail_electric rail_fast ship container cable_car subway aircraft wheelchair scooter drone" speed="13.89" length="53.16" shape="644.60,124.53 686.96,128.06 695.78,126.25 697.99,125.45"/>
        <param key="ref" value="D 7"/>
    </edge>
    <edge id="46420075" from="593278250" to="2563048547" priority="12" type="highway.primary" spreadType="center">
        <lane id="46420075_0" index="0" disallow="tram rail_urban rail rail_electric rail_fast ship container cable_car subway aircraft wheelchair scooter drone" speed="13.89" length="0.56" shape="750.86,110.36 751.39,110.51"/>
        <lane id="46420075_1" index="1" disallow="tram rail_urban rail rail_electric rail_fast ship container cable_car subway aircraft wheelchair scooter drone" speed="13.89" length="0.56" shape="749.96,113.43 750.49,113.58"/>
        <param key="ref" value="D 7"/>
    </edge>
    <edge id="489023181#0" from="3685653377" to="8638190628" priority="1" type="highway.footway" spreadType="center">
        <lane id="489023181#0_0" index="0" allow="pedestrian" speed="2.78" length="1.27" width="2.00" shape="701.31,127.62 701.64,128.84"/>
    </edge>
    <edge id="489023181#1" from="8638190628" to="4813105890" priority="1" type="highway.footway" spreadType="center">
        <lane id="489023181#1_0" index="0" allow="pedestrian" speed="2.78" length="0.14" width="2.00" shape="703.67,138.17 703.69,138.31"/>
    </edge>
    <edge id="497451729" from="4813105890" to="4913061161" priority="1" type="highway.footway" spreadType="center" shape="704.11,141.02 713.18,141.01 728.90,138.69 743.35,137.08 751.63,136.96">
        <lane id="497451729_0" index="0" allow="pedestrian" speed="2.78" length="42.88" width="2.00" shape="706.57,141.02 713.18,141.01 728.90,138.69 743.35,137.08 749.19,137.00"/>
    </edge>
    <edge id="500196632" from="4913061161" to="3685653373" priority="1" type="highway.footway" spreadType="center">
        <lane id="500196632_0" index="0" allow="pedestrian" speed="2.78" length="7.68" width="2.00" shape="751.76,134.46 752.16,126.80"/>
    </edge>
    <edge id="576038134" from="4813105890" to="5525940529" priority="1" type="highway.footway" spreadType="center">
        <lane id="576038134_0" index="0" allow="pedestrian" speed="2.78" length="37.52" width="2.00" shape="701.38,140.86 663.92,138.68"/>
    </edge>
    <edge id="655026183" from="6137464342" to="3685653370" priority="1" type="highway.cycleway" spreadType="center" shape="715.90,11.50 721.06,13.61 724.09,50.10 727.98,74.89 725.20,84.28">
        <lane id="655026183_0" index="0" allow="pedestrian bicycle" speed="5.56" length="17.56" width="2.00" shape="720.97,13.57 721.06,13.61 722.51,31.02"/>
    </edge>
    <edge id="699646104#0" from="4890069708" to="6137464333" priority="1" type="highway.footway" spreadType="center" shape="785.52,139.33 784.69,143.33 781.71,157.67 730.49,151.59 723.73,147.70 703.86,147.02">
        <lane id="699646104#0_0" index="0" allow="pedestrian" speed="2.78" length="94.36" width="2.00" shape="785.29,140.42 784.69,143.33 781.71,157.67 730.49,151.59 723.73,147.70 706.37,147.11"/>
    </edge>
    <edge id="699646104#1" from="6137464333" to="717903591" priority="1" type="highway.footway" spreadType="center">
        <lane id="699646104#1_0" index="0" allow="pedestrian" speed="2.78" length="8.46" width="2.00" shape="701.41,147.03 692.95,147.07"/>
    </edge>
    <edge id="699646104#2" from="717903591" to="6761434854" priority="1" type="highway.footway" spreadType="center" shape="690.48,147.08 640.60,141.87 640.28,144.42">
        <lane id="699646104#2_0" index="0" allow="pedestrian" speed="2.78" length="48.08" width="2.00" shape="688.07,146.83 640.60,141.87 640.56,142.23"/>
    </edge>
    <edge id="699646104#3" from="6761434854" to="5285877344" priority="1" type="highway.footway" spreadType="center" shape="640.28,144.42 628.08,143.84 577.39,141.68 549.50,145.14 520.12,148.90 447.37,167.83 391.73,183.92 390.15,180.31 363.46,193.00 336.53,203.27 265.28,231.83 257.56,234.97 256.70,235.32 203.02,257.23 187.53,263.77 122.34,291.26 98.22,301.21 55.20,321.53 13.91,347.15 0.00,357.80">
        <lane id="699646104#3_0" index="0" allow="pedestrian" speed="2.78" length="685.00" width="2.00" shape="637.86,144.31 628.08,143.84 577.39,141.68 549.50,145.14 520.12,148.90 447.37,167.83 391.73,183.92 390.15,180.31 363.46,193.00 336.53,203.27 265.28,231.83 257.56,234.97 256.70,235.32 203.02,257.23 187.53,263.77 122.34,291.26 98.22,301.21 55.20,321.53 13.91,347.15 0.00,357.80"/>
    </edge>
    <edge id="699917432" from="4813105890" to="6137464333" priority="1" type="highway.footway" spreadType="center">