<?xml version="1.0" encoding="UTF-8"?>

<!-- generated on 2024-09-03 01:38:03 by Eclipse SUMO netconvert Version 1.20.0
<configuration xmlns:xsi="http://www.w3.org/2001/XMLSchema-instance" xsi:noNamespaceSchemaLocation="http://sumo.dlr.de/xsd/netconvertConfiguration.xsd">

    <input>
        <osm-files value="train_files/roundabout/middle/osm_files/ra_0.osm"/>
    </input>

    <output>
        <output-file value="train_files/roundabout/middle/outputs/ra_0_dict/ra_0/ra_0.net.xml"/>
    </output>

    <projection>
        <proj.utm value="true"/>
    </projection>

    <building_defaults>
        <default.junctions.keep-clear value="false"/>
    </building_defaults>

</configuration>
-->

<net version="1.20" junctionCornerDetail="5" limitTurnSpeed="5.50" xmlns:xsi="http://www.w3.org/2001/XMLSchema-instance" xsi:noNamespaceSchemaLocation="http://sumo.dlr.de/xsd/net_file.xsd">

    <location netOffset="-460788.89,-5401281.17" convBoundary="0.00,0.00,577.88,372.75" origBoundary="2.466405,48.763334,2.474286,48.766663" projParameter="+proj=utm +zone=31 +ellps=WGS84 +datum=WGS84 +units=m +no_defs"/>

    <type id="highway.footway" priority="1" numLanes="1" speed="2.78" allow="pedestrian" oneway="1" width="2.00"/>
    <type id="highway.service" priority="1" numLanes="1" speed="5.56" allow="pedestrian delivery bicycle" oneway="0"/>
    <type id="highway.unclassified" priority="4" numLanes="1" speed="13.89" disallow="tram rail_urban rail rail_electric rail_fast ship container cable_car subway aircraft wheelchair scooter drone" oneway="0"/>

    <edge id=":1938182353_0" function="internal">
        <lane id=":1938182353_0_0" index="0" disallow="tram rail_urban rail rail_electric rail_fast ship container cable_car subway aircraft wheelchair scooter drone" speed="13.89" length="5.09" shape="393.28,271.02 388.45,272.64"/>
    </edge>
    <edge id=":1938182353_1" function="internal">
        <lane id=":1938182353_1_0" index="0" disallow="tram rail_urban rail rail_electric rail_fast ship container cable_car subway aircraft wheelchair scooter drone" speed="13.89" length="5.04" shape="387.46,269.60 392.24,268.00"/>
    </edge>
    <edge id=":2478884790_0" function="internal">
        <lane id=":2478884790_0_0" index="0" disallow="tram rail_urban rail rail_electric rail_fast ship container cable_car subway aircraft wheelchair scooter drone" speed="9.06" length="8.92" shape="385.98,273.44 384.43,274.26 383.02,275.66 381.73,277.65 380.58,280.21"/>
    </edge>
    <edge id=":2478884790_1" function="internal">
        <lane id=":2478884790_1_0" index="0" disallow="tram rail_urban rail rail_electric rail_fast ship container cable_car subway aircraft wheelchair scooter drone" speed="6.11" length="6.45" shape="378.79,270.86 379.48,271.32 380.73,271.40 382.57,271.09 384.98,270.40"/>
    </edge>
    <edge id=":2478884790_2" function="internal">
        <lane id=":2478884790_2_0" index="0" disallow="tram rail_urban rail rail_electric rail_fast ship container cable_car subway aircraft wheelchair scooter drone" speed="9.39" length="8.73" shape="378.79,270.86 380.14,273.47 380.88,275.90 381.03,278.15 380.58,280.21"/>
        <lane id=":2478884790_2_1" index="1" disallow="tram rail_urban rail rail_electric rail_fast ship container cable_car subway aircraft wheelchair scooter drone" speed="6.89" length="8.73" shape="376.06,272.52 377.31,274.88 377.98,276.84 378.05,278.42 377.54,279.60"/>
    </edge>
    <edge id=":2478884793_0" function="internal">
        <lane id=":2478884793_0_0" index="0" disallow="tram rail_urban rail rail_electric rail_fast ship container cable_car subway aircraft wheelchair scooter drone" speed="8.40" length="8.02" shape="369.70,264.22 370.53,265.84 371.80,267.21 373.50,268.32 375.63,269.18"/>
    </edge>
    <edge id=":2478884793_1" function="internal">
        <lane id=":2478884793_1_0" index="0" disallow="tram rail_urban rail rail_electric rail_fast ship container cable_car subway aircraft wheelchair scooter drone" speed="7.85" length="7.90" shape="365.26,272.69 366.40,270.93 367.02,269.10 367.12,267.22 366.68,265.28"/>
    </edge>
    <edge id=":2478884793_2" function="internal">
        <lane id=":2478884793_2_0" index="0" disallow="tram rail_urban rail rail_electric rail_fast ship container cable_car subway aircraft wheelchair scooter drone" speed="8.58" length="10.23" shape="365.26,272.69 367.54,270.45 370.03,269.12 372.73,268.70 375.63,269.18"/>
        <lane id=":2478884793_2_1" index="1" disallow="tram rail_urban rail rail_electric rail_fast ship container cable_car subway aircraft wheelchair scooter drone" speed="6.17" length="10.23" shape="367.81,274.63 369.94,272.40 371.85,271.21 373.54,271.08 375.03,272.00"/>
    </edge>
    <edge id=":2478884798_0" function="internal">
        <lane id=":2478884798_0_0" index="0" disallow="tram rail_urban rail rail_electric rail_fast ship container cable_car subway aircraft wheelchair scooter drone" speed="3.65" length="4.67" shape="345.29,204.73 345.65,203.33 346.27,202.69 347.16,202.80 348.31,203.66"/>
    </edge>
    <edge id=":2478884803_0" function="internal">
        <lane id=":2478884803_0_0" index="0" disallow="tram rail_urban rail rail_electric rail_fast ship container cable_car subway aircraft wheelchair scooter drone" speed="3.65" length="4.67" shape="396.15,337.35 395.80,338.75 395.18,339.40 394.30,339.29 393.14,338.43"/>
    </edge>
    <edge id=":2478884807_0" function="internal">
        <lane id=":2478884807_0_0" index="0" disallow="tram rail_urban rail rail_electric rail_fast ship container cable_car subway aircraft wheelchair scooter drone" speed="8.14" length="7.98" shape="375.78,289.97 374.94,288.37 373.66,287.05 371.93,286.00 369.76,285.23"/>
    </edge>
    <edge id=":2478884807_1" function="internal">
        <lane id=":2478884807_1_0" index="0" disallow="tram rail_urban rail rail_electric rail_fast ship container cable_car subway aircraft wheelchair scooter drone" speed="10.30" length="8.17" shape="380.22,281.17 379.23,283.41 378.49,285.02 378.27,286.64 378.80,288.90"/>
    </edge>
    <edge id=":2478884807_2" function="internal">
        <lane id=":2478884807_2_0" index="0" disallow="tram rail_urban rail rail_electric rail_fast ship container cable_car subway aircraft wheelchair scooter drone" speed="7.83" length="10.48" shape="380.22,281.17 378.68,283.75 376.43,285.29 373.45,285.78 369.76,285.23"/>
        <lane id=":2478884807_2_1" index="1" disallow="tram rail_urban rail rail_electric rail_fast ship container cable_car subway aircraft wheelchair scooter drone" speed="6.31" length="10.48" shape="377.41,279.75 375.43,281.77 373.58,282.84 371.86,282.98 370.28,282.18"/>
    </edge>
    <edge id=":2478884818_0" function="internal">
        <lane id=":2478884818_0_0" index="0" allow="pedestrian delivery bicycle" speed="5.76" length="3.61" shape="363.92,276.06 363.55,275.38 362.80,274.81 361.91,274.34 361.12,273.94"/>
    </edge>
    <edge id=":2478884818_1" function="internal">
        <lane id=":2478884818_1_0" index="0" disallow="tram rail_urban rail rail_electric rail_fast ship container cable_car subway aircraft wheelchair scooter drone" speed="6.35" length="2.33" shape="363.92,276.06 363.93,275.30 364.13,274.51 364.53,273.70 365.13,272.85"/>
        <lane id=":2478884818_1_1" index="1" disallow="tram rail_urban rail rail_electric rail_fast ship container cable_car subway aircraft wheelchair scooter drone" speed="4.00" length="2.33" shape="367.09,275.68 367.11,275.37 367.24,275.19 367.44,275.02 367.69,274.78"/>
    </edge>
    <edge id=":2478884824_0" function="internal">
        <lane id=":2478884824_0_0" index="0" disallow="tram rail_urban rail rail_electric rail_fast ship container cable_car subway aircraft wheelchair scooter drone" speed="7.85" length="8.18" shape="368.20,284.61 366.34,283.35 364.45,282.65 362.53,282.52 360.59,282.95"/>
    </edge>
    <edge id=":2478884824_1" function="internal">
        <lane id=":2478884824_1_0" index="0" disallow="tram rail_urban rail rail_electric rail_fast ship container cable_car subway aircraft wheelchair scooter drone" speed="10.66" length="8.46" shape="368.20,284.61 366.10,282.69 364.93,281.06 364.34,279.11 363.94,276.26"/>
        <lane id=":2478884824_1_1" index="1" disallow="tram rail_urban rail rail_electric rail_fast ship container cable_car subway aircraft wheelchair scooter drone" speed="9.19" length="8.46" shape="370.12,282.05 368.60,280.64 367.79,279.42 367.39,277.97 367.12,275.88"/>
    </edge>
    <edge id=":2478884824_3" function="internal">
        <lane id=":2478884824_3_0" index="0" disallow="tram rail_urban rail rail_electric rail_fast ship container cable_car subway aircraft wheelchair scooter drone" speed="5.91" length="6.00" shape="359.61,279.90 361.60,279.04 362.98,278.15 363.76,277.23 363.94,276.26"/>
    </edge>
    <edge id=":2923377595_0" function="internal">
        <lane id=":2923377595_0_0" index="0" disallow="tram rail_urban rail rail_electric rail_fast ship container cable_car subway aircraft wheelchair scooter drone" speed="3.65" length="4.67" shape="-0.93,272.64 -1.44,271.29 -1.30,270.41 -0.51,269.99 0.93,270.04"/>
    </edge>
    <edge id=":5537425709_0" function="internal">
        <lane id=":5537425709_0_0" index="0" disallow="tram rail_urban rail rail_electric rail_fast ship container cable_car subway aircraft wheelchair scooter drone" speed="3.65" length="4.67" shape="463.26,244.18 464.64,244.59 465.26,245.23 465.11,246.11 464.20,247.23"/>
    </edge>
    <edge id=":7798785968_0" function="internal">
        <lane id=":7798785968_0_0" index="0" disallow="tram rail_urban rail rail_electric rail_fast ship container cable_car subway aircraft wheelchair scooter drone" speed="13.89" length="5.02" shape="366.31,264.22 364.64,259.49"/>
    </edge>
    <edge id=":7798785968_1" function="internal">
        <lane id=":7798785968_1_0" index="0" disallow="tram rail_urban rail rail_electric rail_fast ship container cable_car subway aircraft wheelchair scooter drone" speed="13.89" length="5.02" shape="367.65,258.43 369.33,263.16"/>
    </edge>
    <edge id=":7798796560_0" function="internal">
        <lane id=":7798796560_0_0" index="0" disallow="tram rail_urban rail rail_electric rail_fast ship container cable_car subway aircraft wheelchair scooter drone" speed="13.89" length="5.04" shape="378.18,296.69 376.48,291.94"/>
    </edge>
    <edge id=":7798796560_1" function="internal">
        <lane id=":7798796560_1_0" index="0" disallow="tram rail_urban rail rail_electric rail_fast ship container cable_car subway aircraft wheelchair scooter drone" speed="13.89" length="5.03" shape="379.50,290.87 381.19,295.61"/>
    </edge>
    <edge id=":8202889573_0" function="internal">
        <lane id=":8202889573_0_0" index="0" allow="pedestrian delivery bicycle" speed="5.95" length="3.30" shape="379.95,267.63 378.69,270.69"/>
    </edge>
    <edge id=":8202889573_1" function="internal">
        <lane id=":8202889573_1_0" index="0" disallow="tram rail_urban rail rail_electric rail_fast ship container cable_car subway aircraft wheelchair scooter drone" speed="6.53" length="2.01" shape="375.82,269.24 378.69,270.69"/>
        <lane id=":8202889573_1_1" index="1" disallow="tram rail_urban rail rail_electric rail_fast ship container cable_car subway aircraft wheelchair scooter drone" speed="13.89" length="2.01" shape="375.17,272.14 375.95,272.35"/>
    </edge>
    <edge id=":8202889575_0" function="internal">
        <lane id=":8202889575_0_0" index="0" allow="pedestrian delivery bicycle" speed="5.56" length="5.17" shape="376.85,255.03 378.50,259.93"/>
    </edge>
    <edge id=":9664250226_0" function="internal">
        <lane id=":9664250226_0_0" index="0" allow="pedestrian delivery bicycle" speed="5.56" length="5.01" shape="357.57,267.34 355.87,262.63"/>
    </edge>

    <edge id="-1051650833#0" from="1938182353" to="5537425709" priority="4" type="highway.unclassified" shape="390.35,270.34 427.25,257.70 433.45,255.41 446.06,251.17 463.73,245.70">
        <lane id="-1051650833#0_0" index="0" disallow="tram rail_urban rail rail_electric rail_fast ship container cable_car subway aircraft wheelchair scooter drone" speed="13.89" length="74.91" shape="392.24,268.00 426.71,256.19 432.92,253.90 445.57,249.65 463.26,244.18"/>
    </edge>
    <edge id="-1051650833#1" from="2478884790" to="1938182353" priority="4" type="highway.unclassified" shape="378.89,274.09 382.89,272.77 390.35,270.34">
        <lane id="-1051650833#1_0" index="0" disallow="tram rail_urban rail rail_electric rail_fast ship container cable_car subway aircraft wheelchair scooter drone" speed="13.89" length="2.61" shape="384.98,270.40 387.46,269.60"/>
    </edge>
    <edge id="-183450148" from="2923377595" to="2478884824" priority="4" type="highway.unclassified" shape="0.00,271.34 3.46,273.83 6.05,275.79 8.06,277.32 12.37,280.61 27.29,286.19 42.70,291.94 66.22,300.71 72.32,302.98 80.40,306.10 83.56,310.41 85.95,316.15 86.80,318.54 102.78,363.36 103.62,365.88 106.10,372.75 167.16,350.76 179.95,345.99 192.64,341.53 199.52,339.10 284.92,308.57 299.20,303.45 300.64,302.93 311.51,298.94 353.98,283.66 362.78,280.44 365.94,279.43">
        <lane id="-183450148_0" index="0" disallow="tram rail_urban rail rail_electric rail_fast ship container cable_car subway aircraft wheelchair scooter drone" speed="13.89" length="427.51" shape="0.93,270.04 4.41,272.54 7.02,274.52 9.03,276.05 13.16,279.19 27.85,284.69 43.26,290.45 66.78,299.21 72.89,301.48 81.41,304.78 84.97,309.62 87.44,315.58 88.30,318.00 104.28,362.82 105.14,365.35 107.07,370.70 166.61,349.26 179.40,344.49 192.11,340.02 198.99,337.59 284.38,307.07 298.66,301.95 300.09,301.43 310.96,297.44 353.44,282.16 359.61,279.90"/>
    </edge>
    <edge id="-240124079#0" from="7798796560" to="2478884803" priority="4" type="highway.unclassified">
        <lane id="-240124079#0_0" index="0" disallow="tram rail_urban rail rail_electric rail_fast ship container cable_car subway aircraft wheelchair scooter drone" speed="13.89" length="44.34" shape="381.19,295.61 396.15,337.35"/>
    </edge>
    <edge id="-240124079#1" from="2478884807" to="7798796560" priority="4" type="highway.unclassified" shape="375.26,283.71 376.45,287.06 378.82,293.75">
        <lane id="-240124079#1_0" index="0" disallow="tram rail_urban rail rail_electric rail_fast ship container cable_car subway aircraft wheelchair scooter drone" speed="13.89" length="2.09" shape="378.80,288.90 379.50,290.87"/>
    </edge>
    <edge id="-240124081#0" from="7798785968" to="2478884793" priority="4" type="highway.unclassified" shape="366.98,261.33 369.13,267.39 370.25,270.58">
        <lane id="-240124081#0_0" index="0" disallow="tram rail_urban rail rail_electric rail_fast ship container cable_car subway aircraft wheelchair scooter drone" speed="13.89" length="1.13" shape="369.33,263.16 369.70,264.22"/>
    </edge>
    <edge id="-240124081#1" from="2478884798" to="7798785968" priority="4" type="highway.unclassified" shape="346.80,204.19 351.57,217.69 366.98,261.33">
        <lane id="-240124081#1_0" index="0" disallow="tram rail_urban rail rail_electric rail_fast ship container cable_car subway aircraft wheelchair scooter drone" speed="13.89" length="58.08" shape="348.31,203.66 353.08,217.16 367.65,258.43"/>
    </edge>
    <edge id="1051650825#0" from="9751589816" to="8202889575" priority="1" type="highway.footway" spreadType="center">
        <lane id="1051650825#0_0" index="0" allow="pedestrian" speed="2.78" length="0.20" width="2.00" shape="380.42,256.32 380.24,256.40"/>
    </edge>
    <edge id="1051650825#1" from="8202889575" to="7798785968" priority="1" type="highway.footway" spreadType="center">
        <lane id="1051650825#1_0" index="0" allow="pedestrian" speed="2.78" length="3.57" width="2.00" shape="374.78,258.55 371.41,259.75"/>
    </edge>
    <edge id="1051650825#2" from="7798785968" to="9664250226" priority="1" type="highway.footway" spreadType="center">
        <lane id="1051650825#2_0" index="0" allow="pedestrian" speed="2.78" length="3.09" width="2.00" shape="362.55,262.90 359.64,263.94"/>
    </edge>
    <edge id="1051650825#3" from="9664250226" to="9751589814" priority="1" type="highway.footway" spreadType="center">
        <lane id="1051650825#3_0" index="0" allow="pedestrian" speed="2.78" length="0.20" width="2.00" shape="354.16,265.92 353.97,265.99"/>
    </edge>
    <edge id="1051650833#0" from="5537425709" to="1938182353" priority="4" type="highway.unclassified" shape="463.73,245.70 446.06,251.17 433.45,255.41 427.25,257.70 390.35,270.34">
        <lane id="1051650833#0_0" index="0" disallow="tram rail_urban rail rail_electric rail_fast ship container cable_car subway aircraft wheelchair scooter drone" speed="13.89" length="74.82" shape="464.20,247.23 446.55,252.70 433.99,256.92 427.78,259.20 393.28,271.02"/>
    </edge>
    <edge id="1051650833#1" from="1938182353" to="2478884790" priority="4" type="highway.unclassified" shape="390.35,270.34 382.89,272.77 378.89,274.09">
        <lane id="1051650833#1_0" index="0" disallow="tram rail_urban rail rail_electric rail_fast ship container cable_car subway aircraft wheelchair scooter drone" speed="13.89" length="2.59" shape="388.45,272.64 385.98,273.44"/>
    </edge>
    <edge id="1061371235#0" from="9751589814" to="9751589815" priority="1" type="highway.footway" spreadType="center">
        <lane id="1061371235#0_0" index="0" allow="pedestrian" speed="2.78" length="0.20" width="2.00" shape="354.83,265.66 354.64,265.73"/>
    </edge>
    <edge id="1061371235#1" from="9751589815" to="11229837544" priority="1" type="highway.footway" spreadType="center" shape="353.03,266.38 356.55,276.13 275.51,305.87 273.34,305.91 269.98,307.19 238.61,318.49 200.81,332.22">
        <lane id="1061371235#1_0" index="0" allow="pedestrian" speed="2.78" length="173.55" width="2.00" shape="353.87,268.70 356.55,276.13 275.51,305.87 273.34,305.91 269.98,307.19 238.61,318.49 200.81,332.22"/>
    </edge>
    <edge id="1154110401#0" from="10733462131" to="11584965583" priority="1" type="highway.footway" spreadType="center" shape="381.91,255.85 378.92,247.88 373.08,232.33 367.17,216.57 365.60,212.39 354.48,180.52 356.37,175.40">
        <lane id="1154110401#0_0" index="0" allow="pedestrian" speed="2.78" length="80.68" width="2.00" shape="381.02,253.48 378.92,247.88 373.08,232.33 367.17,216.57 365.60,212.39 354.48,180.52 355.53,177.67"/>
    </edge>
    <edge id="1154110401#1" from="11584965583" to="10733462129" priority="1" type="highway.footway" spreadType="center">
        <lane id="1154110401#1_0" index="0" allow="pedestrian" speed="2.78" length="0.20" width="2.00" shape="354.72,174.63 354.54,174.54"/>
    </edge>
    <edge id="1154110402#0" from="10733462135" to="1938182353" priority="1" type="highway.footway" spreadType="center">
        <lane id="1154110402#0_0" index="0" allow="pedestrian" speed="2.78" length="0.20" width="2.00" shape="391.88,274.59 391.81,274.40"/>
    </edge>
    <edge id="1154110402#1" from="1938182353" to="10733462134" priority="1" type="highway.footway" spreadType="center">
        <lane id="1154110402#1_0" index="0" allow="pedestrian" speed="2.78" length="0.20" width="2.00" shape="389.11,266.60 389.05,266.41"/>
    </edge>
    <edge id="1154110403#0" from="10733462143" to="10733462136" priority="1" type="highway.footway" spreadType="center" shape="388.11,290.64 385.44,282.35 389.46,278.59 392.75,277.06">
        <lane id="1154110403#0_0" index="0" allow="pedestrian" speed="2.78" length="12.94" width="2.00" shape="387.35,288.27 385.44,282.35 389.46,278.59 390.57,278.07"/>
    </edge>
    <edge id="1154110403#1" from="10733462136" to="10733462135" priority="1" type="highway.footway" spreadType="center">
        <lane id="1154110403#1_0" index="0" allow="pedestrian" speed="2.78" length="0.24" width="2.00" shape="391.92,274.72 391.84,274.49"/>
    </edge>
    <edge id="1154110404#0" from="10733462134" to="10733462133" priority="1" type="highway.footway" spreadType="center">
        <lane id="1154110404#0_0" index="0" allow="pedestrian" speed="2.78" length="0.20" width="2.00" shape="389.42,267.76 389.38,267.57"/>
    </edge>
    <edge id="1154110404#1" from="10733462133" to="10733462131" priority="1" type="highway.footway" spreadType="center" shape="388.98,265.78 385.68,266.58 381.91,255.85">
        <lane id="1154110404#1_0" index="0" allow="pedestrian" speed="2.78" length="9.77" width="2.00" shape="386.54,266.37 385.68,266.58 382.73,258.20"/>
    </edge>
    <edge id="1154110404#2" from="10733462131" to="9751589816" priority="1" type="highway.footway" spreadType="center">
        <lane id="1154110404#2_0" index="0" allow="pedestrian" speed="2.78" length="0.20" width="2.00" shape="379.88,256.54 379.69,256.60"/>
    </edge>
    <edge id="1154110405#0" from="10733462142" to="7798796560" priority="1" type="highway.footway" spreadType="center">
        <lane id="1154110405#0_0" index="0" allow="pedestrian" speed="2.78" length="0.20" width="2.00" shape="381.20,292.94 381.01,293.00"/>
    </edge>
    <edge id="1154110405#1" from="7798796560" to="10733462141" priority="1" type="highway.footway" spreadType="center">
        <lane id="1154110405#1_0" index="0" allow="pedestrian" speed="2.78" length="0.66" width="2.00" shape="374.40,295.34 373.78,295.57"/>
    </edge>
    <edge id="1154110406#0" from="10733462141" to="10733462140" priority="1" type="highway.footway" spreadType="center">
        <lane id="1154110406#0_0" index="0" allow="pedestrian" speed="2.78" length="0.78" width="2.00" shape="373.54,295.65 372.80,295.89"/>
    </edge>
    <edge id="1154110406#1" from="10733462140" to="10733462139" priority="1" type="highway.footway" spreadType="center">
        <lane id="1154110406#1_0" index="0" allow="pedestrian" speed="2.78" length="59.14" width="2.00" shape="371.21,299.04 390.13,355.08"/>
    </edge>
    <edge id="1154110407#0" from="9421130223" to="10733462143" priority="1" type="highway.footway" spreadType="center">
        <lane id="1154110407#0_0" index="0" allow="pedestrian" speed="2.78" length="58.65" width="2.00" shape="408.91,348.11 388.96,292.96"/>
    </edge>
    <edge id="1154110407#1" from="10733462143" to="10733462142" priority="1" type="highway.footway" spreadType="center">
        <lane id="1154110407#1_0" index="0" allow="pedestrian" speed="2.78" length="2.33" width="2.00" shape="385.75,291.42 383.53,292.15"/>
    </edge>
    <edge id="1202582033" from="10733462140" to="5279920935" priority="1" type="highway.footway" spreadType="center" shape="370.41,296.66 368.35,290.82 362.53,288.69 281.40,316.78">
        <lane id="1202582033_0" index="0" allow="pedestrian" speed="2.78" length="95.77" width="2.00" shape="369.59,294.33 368.35,290.82 362.53,288.69 281.40,316.78"/>
    </edge>
    <edge id="1212114504" from="2923377596" to="9751589815" priority="1" type="highway.footway" spreadType="center" shape="9.02,273.35 9.79,272.49 9.85,268.30 18.06,246.35 27.61,221.96 38.61,197.27 41.37,190.86 64.61,130.06 68.31,120.56 70.78,114.84 73.42,110.84 75.77,108.47 81.80,105.12 87.56,103.86 96.45,106.70 98.24,108.99 139.72,124.35 159.22,131.73 184.90,141.56 187.21,141.15 206.53,148.43 214.25,151.46 252.24,165.75 278.26,175.72 283.33,179.29 302.13,186.11 321.72,193.21 326.95,195.11 337.24,222.66 353.03,266.38">
        <lane id="1212114504_0" index="0" allow="pedestrian" speed="2.78" length="521.94" width="2.00" shape="9.02,273.35 9.79,272.49 9.85,268.30 18.06,246.35 27.61,221.96 38.61,197.27 41.37,190.86 64.61,130.06 68.31,120.56 70.78,114.84 73.42,110.84 75.77,108.47 81.80,105.12 87.56,103.86 96.45,106.70 98.24,108.99 139.72,124.35 159.22,131.73 184.90,141.56 187.21,141.15 206.53,148.43 214.25,151.46 252.24,165.75 278.26,175.72 283.33,179.29 302.13,186.11 321.72,193.21 326.95,195.11 337.24,222.66 352.17,264.00"/>
    </edge>
    <edge id="1246134261" from="11584965583" to="10733462133" priority="1" type="highway.footway" spreadType="center" shape="356.37,175.40 369.35,140.75 371.53,134.70 386.38,95.19 389.79,86.23 398.84,62.49 400.37,58.31 410.48,31.95 412.62,28.73 415.56,25.96 425.36,21.89 429.36,20.22 458.42,10.07 479.91,2.30 484.82,0.53 488.80,0.00 492.70,0.76 498.04,2.39 503.72,5.50 536.45,24.43 554.44,34.69 562.96,40.37 566.09,45.51 573.88,66.00 577.30,75.80 577.88,83.01 575.90,88.49 567.89,101.88 507.12,203.80 493.08,226.78 490.34,229.16 481.99,231.87 460.64,238.80 461.15,240.76 444.38,246.23 425.55,252.49 391.43,263.98 388.98,265.78">
        <lane id="1246134261_0" index="0" allow="pedestrian" speed="2.78" length="645.07" width="2.00" shape="357.28,172.98 369.35,140.75 371.53,134.70 386.38,95.19 389.79,86.23 398.84,62.49 400.37,58.31 410.48,31.95 412.62,28.73 415.56,25.96 425.36,21.89 429.36,20.22 458.42,10.07 479.91,2.30 484.82,0.53 488.80,0.00 492.70,0.76 498.04,2.39 503.72,5.50 536.45,24.43 554.44,34.69 562.96,40.37 566.09,45.51 573.88,66.00 577.30,75.80 577.88,83.01 575.90,88.49 567.89,101.88 507.12,203.80 493.08,226.78 490.34,229.16 481.99,231.87 460.64,238.80 461.15,240.76 444.38,246.23 425.55,252.49 391.43,263.98 390.72,264.50"/>
    </edge>
    <edge id="1246137190" from="10733462136" to="11585181095" priority="1" type="highway.footway" spreadType="center" shape="392.75,277.06 436.17,262.71 460.99,254.36">
        <lane id="1246137190_0" index="0" allow="pedestrian" speed="2.78" length="69.43" width="2.00" shape="395.11,276.28 436.17,262.71 460.99,254.36"/>
    </edge>
    <edge id="183450148" from="2478884824" to="2923377595" priority="4" type="highway.unclassified" shape="365.94,279.43 362.78,280.44 353.98,283.66 311.51,298.94 300.64,302.93 299.20,303.45 284.92,308.57 199.52,339.10 192.64,341.53 179.95,345.99 167.16,350.76 106.10,372.75 103.62,365.88 102.78,363.36 86.80,318.54 85.95,316.15 83.56,310.41 80.40,306.10 72.32,302.98 66.22,300.71 42.70,291.94 27.29,286.19 12.37,280.61 8.06,277.32 6.05,275.79 3.46,273.83 0.00,271.34">
        <lane id="183450148_0" index="0" disallow="tram rail_urban rail rail_electric rail_fast ship container cable_car subway aircraft wheelchair scooter drone" speed="13.89" length="431.82" shape="360.59,282.95 354.53,285.17 312.05,300.45 301.19,304.43 299.74,304.96 285.46,310.08 200.06,340.60 193.17,343.04 180.49,347.49 167.71,352.26 105.14,374.80 102.12,366.41 101.26,363.88 85.29,319.08 84.46,316.73 82.16,311.20 79.38,307.42 71.75,304.47 65.66,302.21 42.14,293.44 26.73,287.69 11.59,282.02 7.09,278.60 5.08,277.07 2.51,275.12 -0.93,272.64"/>
    </edge>
    <edge id="240124079#0" from="2478884803" to="7798796560" priority="4" type="highway.unclassified">
        <lane id="240124079#0_0" index="0" disallow="tram rail_urban rail rail_electric rail_fast ship container cable_car subway aircraft wheelchair scooter drone" speed="13.89" length="44.34" shape="393.14,338.43 378.18,296.69"/>
    </edge>
    <edge id="240124079#1" from="7798796560" to="2478884807" priority="4" type="highway.unclassified" shape="378.82,293.75 376.45,287.06 375.26,283.71">
        <lane id="240124079#1_0" index="0" disallow="tram rail_urban rail rail_electric rail_fast ship container cable_car subway aircraft wheelchair scooter drone" speed="13.89" length="2.09" shape="376.48,291.94 375.78,289.97"/>
    </edge>
    <edge id="240124081#0" from="2478884793" to="7798785968" priority="4" type="highway.unclassified" shape="370.25,270.58 369.13,267.39 366.98,261.33">
        <lane id="240124081#0_0" index="0" disallow="tram rail_urban rail rail_electric rail_fast ship container cable_car subway aircraft wheelchair scooter drone" speed="13.89" length="1.12" shape="366.68,265.28 366.31,264.22"/>
    </edge>
    <edge id="240124081#1" from="7798785968" to="2478884798" priority="4" type="highway.unclassified" shape="366.98,261.33 351.57,217.69 346.80,204.19">
        <lane id="240124081#1_0" index="0" disallow="tram rail_urban rail rail_electric rail_fast ship container cable_car subway aircraft wheelchair scooter drone" speed="13.89" length="58.08" shape="364.64,259.49 350.06,218.22 345.29,204.73"/>
    </edge>
    <edge id="240124082#0" from="2478884807" to="2478884824" priority="4" type="highway.unclassified" spreadType="center" shape="375.26,283.71 372.26,284.23 369.31,283.45 366.97,281.50 365.94,279.43">
        <lane id="240124082#0_0" index="0" disallow="tram rail_urban rail rail_electric rail_fast ship container cable_car subway aircraft wheelchair scooter drone" speed="13.89" length="0.95" shape="369.76,285.23 368.56,284.91 368.20,284.61"/>
        <lane id="240124082#0_1" index="1" disallow="tram rail_urban rail rail_electric rail_fast ship container cable_car subway aircraft wheelchair scooter drone" speed="13.89" length="0.95" shape="370.28,282.18 370.12,282.05"/>
    </edge>
    <edge id="240124082#1" from="2478884824" to="2478884818" priority="4" type="highway.unclassified" spreadType="center">
        <lane id="240124082#1_0" index="0" disallow="tram rail_urban rail rail_electric rail_fast ship container cable_car subway aircraft wheelchair scooter drone" speed="13.89" length="0.20" shape="363.94,276.26 363.92,276.06"/>
        <lane id="240124082#1_1" index="1" disallow="tram rail_urban rail rail_electric rail_fast ship container cable_car subway aircraft wheelchair scooter drone" speed="13.89" length="0.20" shape="367.12,275.88 367.09,275.68"/>
    </edge>
    <edge id="240124082#2" from="2478884818" to="2478884793" priority="4" type="highway.unclassified" spreadType="center" shape="365.56,276.35 366.36,273.88 368.00,271.86 370.25,270.58">
        <lane id="240124082#2_0" index="0" disallow="tram rail_urban rail rail_electric rail_fast ship container cable_car subway aircraft wheelchair scooter drone" speed="13.89" length="0.20" shape="365.13,272.85 365.26,272.69"/>
        <lane id="240124082#2_1" index="1" disallow="tram rail_urban rail rail_electric rail_fast ship container cable_car subway aircraft wheelchair scooter drone" speed="13.89" length="0.20" shape="367.69,274.78 367.81,274.63"/>
    </edge>