<?xml version="1.0" encoding="UTF-8"?>

<!-- generated on 2024-09-03 01:37:12 by Eclipse SUMO netconvert Version 1.20.0
<configuration xmlns:xsi="http://www.w3.org/2001/XMLSchema-instance" xsi:noNamespaceSchemaLocation="http://sumo.dlr.de/xsd/netconvertConfiguration.xsd">

    <input>
        <osm-files value="train_files/intersection/easy/osm_files/map(92).osm"/>
    </input>

    <output>
        <output-file value="train_files/intersection/easy/outputs/map(92)_dict/map(92)/map(92).net.xml"/>
    </output>

    <projection>
        <proj.utm value="true"/>
    </projection>

    <building_defaults>
        <default.junctions.keep-clear value="false"/>
    </building_defaults>

</configuration>
-->

<net version="1.20" junctionCornerDetail="5" limitTurnSpeed="5.50" xmlns:xsi="http://www.w3.org/2001/XMLSchema-instance" xsi:noNamespaceSchemaLocation="http://sumo.dlr.de/xsd/net_file.xsd">

    <location netOffset="-542365.11,-5970854.31" convBoundary="0.00,0.00,836.76,2049.48" origBoundary="27.644686,53.884347,27.657256,53.902830" projParameter="+proj=utm +zone=35 +ellps=WGS84 +datum=WGS84 +units=m +no_defs"/>

    <type id="highway.footway" priority="1" numLanes="1" speed="2.78" allow="pedestrian" oneway="1" width="2.00"/>
    <type id="highway.path" priority="1" numLanes="1" speed="5.56" allow="pedestrian bicycle" oneway="0" width="2.00"/>
    <type id="highway.secondary" priority="11" numLanes="1" speed="27.78" disallow="tram rail_urban rail rail_electric rail_fast ship container cable_car subway aircraft wheelchair scooter drone" oneway="0"/>
    <type id="highway.steps" priority="1" numLanes="1" speed="1.39" allow="pedestrian" oneway="1" width="2.00"/>
    <type id="highway.tertiary" priority="10" numLanes="1" speed="22.22" disallow="tram rail_urban rail rail_electric rail_fast ship container cable_car subway aircraft wheelchair scooter drone" oneway="0"/>

    <edge id=":2408641394_0" function="internal">
        <lane id=":2408641394_0_0" index="0" disallow="pedestrian tram rail_urban rail rail_electric rail_fast ship container cable_car subway aircraft wheelchair scooter drone" speed="16.67" length="0.10" shape="495.57,1152.57 495.51,1152.62"/>
    </edge>
    <edge id=":2408641394_1" function="internal">
        <lane id=":2408641394_1_0" index="0" disallow="pedestrian tram rail_urban rail rail_electric rail_fast ship container cable_car subway aircraft wheelchair scooter drone" speed="16.67" length="0.10" shape="493.48,1150.16 493.42,1150.20"/>
    </edge>
    <edge id=":275052200_0" function="internal">
        <lane id=":275052200_0_0" index="0" disallow="pedestrian tram rail_urban rail rail_electric rail_fast ship container cable_car subway aircraft wheelchair scooter drone" speed="8.26" length="12.63" shape="372.32,1379.89 371.45,1383.38 371.65,1386.41 372.91,1388.98 375.23,1391.09"/>
    </edge>
    <edge id=":275052200_1" function="internal">
        <lane id=":275052200_1_0" index="0" disallow="pedestrian tram rail_urban rail rail_electric rail_fast ship container cable_car subway aircraft wheelchair scooter drone" speed="16.67" length="17.87" shape="372.32,1379.89 370.80,1383.80 369.01,1388.19 367.12,1392.53 365.32,1396.32"/>
    </edge>
    <edge id=":275052200_2" function="internal">
        <lane id=":275052200_2_0" index="0" disallow="pedestrian tram rail_urban rail rail_electric rail_fast ship container cable_car subway aircraft wheelchair scooter drone" speed="3.65" length="1.44" shape="372.32,1379.89 371.15,1380.73"/>
    </edge>
    <edge id=":275052200_11" function="internal">
        <lane id=":275052200_11_0" index="0" disallow="pedestrian tram rail_urban rail rail_electric rail_fast ship container cable_car subway aircraft wheelchair scooter drone" speed="3.65" length="3.23" shape="371.15,1380.73 370.26,1380.82 369.65,1380.16 369.33,1378.76"/>
    </edge>
    <edge id=":275052200_3" function="internal">
        <lane id=":275052200_3_0" index="0" disallow="pedestrian tram rail_urban rail rail_electric rail_fast ship container cable_car subway aircraft wheelchair scooter drone" speed="6.24" length="9.05" shape="362.14,1381.46 364.51,1382.32 366.50,1382.16 368.11,1380.97 369.33,1378.76"/>
    </edge>
    <edge id=":275052200_4" function="internal">
        <lane id=":275052200_4_0" index="0" disallow="pedestrian tram rail_urban rail rail_electric rail_fast ship container cable_car subway aircraft wheelchair scooter drone" speed="16.67" length="16.00" shape="362.14,1381.46 366.25,1383.95 368.83,1386.04 371.33,1388.24 375.23,1391.09"/>
        <lane id=":275052200_4_1" index="1" disallow="pedestrian tram rail_urban rail rail_electric rail_fast ship container cable_car subway aircraft wheelchair scooter drone" speed="16.67" length="16.00" shape="360.63,1384.28 364.67,1386.73 367.19,1388.79 369.64,1390.96 373.47,1393.76"/>
        <lane id=":275052200_4_2" index="2" disallow="pedestrian tram rail_urban rail rail_electric rail_fast ship container cable_car subway aircraft wheelchair scooter drone" speed="16.67" length="16.00" shape="359.12,1387.11 363.08,1389.52 365.55,1391.54 367.96,1393.68 371.72,1396.43"/>
    </edge>
    <edge id=":275052200_7" function="internal">
        <lane id=":275052200_7_0" index="0" disallow="pedestrian tram rail_urban rail rail_electric rail_fast ship container cable_car subway aircraft wheelchair scooter drone" speed="6.99" length="10.39" shape="357.61,1389.93 361.33,1392.05 363.85,1393.83 365.18,1395.25 365.32,1396.32"/>
    </edge>
    <edge id=":275052200_8" function="internal">
        <lane id=":275052200_8_0" index="0" disallow="pedestrian tram rail_urban rail rail_electric rail_fast ship container cable_car subway aircraft wheelchair scooter drone" speed="16.67" length="17.52" shape="362.47,1394.88 364.24,1391.13 366.08,1386.90 367.83,1382.62 369.33,1378.76"/>
    </edge>
    <edge id=":275052200_9" function="internal">
        <lane id=":275052200_9_0" index="0" disallow="pedestrian tram rail_urban rail rail_electric rail_fast ship container cable_car subway aircraft wheelchair scooter drone" speed="6.68" length="1.70" shape="362.47,1394.88 363.69,1393.70"/>
    </edge>
    <edge id=":275052200_10" function="internal">
        <lane id=":275052200_10_0" index="0" disallow="tram rail_urban rail rail_electric rail_fast ship container cable_car subway aircraft wheelchair scooter drone" speed="3.65" length="1.44" shape="362.47,1394.88 363.72,1394.17"/>
    </edge>
    <edge id=":275052200_12" function="internal">
        <lane id=":275052200_12_0" index="0" disallow="pedestrian tram rail_urban rail rail_electric rail_fast ship container cable_car subway aircraft wheelchair scooter drone" speed="6.68" length="8.70" shape="363.69,1393.70 365.64,1393.57 368.31,1394.48 371.72,1396.43"/>
    </edge>
    <edge id=":275052200_13" function="internal">
        <lane id=":275052200_13_0" index="0" disallow="tram rail_urban rail rail_electric rail_fast ship container cable_car subway aircraft wheelchair scooter drone" speed="3.65" length="3.23" shape="363.72,1394.17 364.62,1394.17 365.15,1394.89 365.32,1396.32"/>
    </edge>
    <edge id=":275052220_0" function="internal">
        <lane id=":275052220_0_0" index="0" disallow="pedestrian tram rail_urban rail rail_electric rail_fast ship container cable_car subway aircraft wheelchair scooter drone" speed="3.65" length="4.67" shape="505.71,1139.04 507.13,1138.82 507.97,1139.14 508.21,1140.00 507.86,1141.40"/>
    </edge>
    <edge id=":2776797754_0" function="internal">
        <lane id=":2776797754_0_0" index="0" disallow="pedestrian tram rail_urban rail rail_electric rail_fast ship container cable_car subway aircraft wheelchair scooter drone" speed="16.67" length="6.24" shape="342.93,1394.86 337.50,1391.49"/>
        <lane id=":2776797754_0_1" index="1" disallow="pedestrian tram rail_urban rail rail_electric rail_fast ship container cable_car subway aircraft wheelchair scooter drone" speed="16.67" length="6.24" shape="344.55,1392.10 339.25,1388.82"/>
        <lane id=":2776797754_0_2" index="2" disallow="pedestrian tram rail_urban rail rail_electric rail_fast ship container cable_car subway aircraft wheelchair scooter drone" speed="16.67" length="6.24" shape="346.16,1389.34 341.00,1386.14"/>
    </edge>
    <edge id=":2857785627_0" function="internal">
        <lane id=":2857785627_0_0" index="0" disallow="pedestrian tram rail_urban rail rail_electric rail_fast ship container cable_car subway aircraft wheelchair scooter drone" speed="16.67" length="4.97" shape="415.72,1419.98 419.71,1422.99"/>
        <lane id=":2857785627_0_1" index="1" disallow="pedestrian tram rail_urban rail rail_electric rail_fast ship container cable_car subway aircraft wheelchair scooter drone" speed="16.67" length="4.97" shape="413.80,1422.55 417.78,1425.54"/>
        <lane id=":2857785627_0_2" index="2" disallow="pedestrian tram rail_urban rail rail_electric rail_fast ship container cable_car subway aircraft wheelchair scooter drone" speed="16.67" length="4.97" shape="411.88,1425.11 415.84,1428.09"/>
    </edge>
    <edge id=":442877685_0" function="internal">
        <lane id=":442877685_0_0" index="0" disallow="pedestrian tram rail_urban rail rail_electric rail_fast ship container cable_car subway aircraft wheelchair scooter drone" speed="5.93" length="8.49" shape="368.08,1412.24 365.79,1411.09 363.87,1410.96 362.34,1411.86 361.18,1413.77"/>
    </edge>
    <edge id=":442877685_1" function="internal">
        <lane id=":442877685_1_0" index="0" disallow="pedestrian tram rail_urban rail rail_electric rail_fast ship container cable_car subway aircraft wheelchair scooter drone" speed="16.67" length="21.65" shape="368.08,1412.24 350.81,1399.48"/>
        <lane id=":442877685_1_1" index="1" disallow="pedestrian tram rail_urban rail rail_electric rail_fast ship container cable_car subway aircraft wheelchair scooter drone" speed="16.67" length="21.65" shape="369.86,1409.57 352.43,1396.72"/>
        <lane id=":442877685_1_2" index="2" disallow="pedestrian tram rail_urban rail rail_electric rail_fast ship container cable_car subway aircraft wheelchair scooter drone" speed="16.67" length="21.65" shape="371.63,1406.91 354.05,1393.96"/>
    </edge>
    <edge id=":442877685_4" function="internal">
        <lane id=":442877685_4_0" index="0" disallow="pedestrian tram rail_urban rail rail_electric rail_fast ship container cable_car subway aircraft wheelchair scooter drone" speed="8.46" length="14.54" shape="373.40,1404.25 368.32,1400.74 364.78,1398.04 362.80,1396.15 362.38,1395.05"/>
    </edge>
    <edge id=":442877685_5" function="internal">
        <lane id=":442877685_5_0" index="0" disallow="pedestrian tram rail_urban rail rail_electric rail_fast ship container cable_car subway aircraft wheelchair scooter drone" speed="16.67" length="17.68" shape="365.23,1396.50 364.11,1399.92 363.59,1403.72 362.88,1408.22 361.18,1413.77"/>
        <lane id=":442877685_5_1" index="1" disallow="pedestrian tram rail_urban rail rail_electric rail_fast ship container cable_car subway aircraft wheelchair scooter drone" speed="16.67" length="17.68" shape="365.23,1396.50 363.64,1399.75 362.09,1403.16 360.36,1407.26 358.21,1412.59"/>
    </edge>
    <edge id=":442877685_7" function="internal">
        <lane id=":442877685_7_0" index="0" disallow="pedestrian tram rail_urban rail rail_electric rail_fast ship container cable_car subway aircraft wheelchair scooter drone" speed="7.33" length="12.30" shape="365.23,1396.50 363.95,1397.50 361.65,1397.41 358.35,1396.23 354.05,1393.96"/>
    </edge>
    <edge id=":442877685_8" function="internal">
        <lane id=":442877685_8_0" index="0" disallow="tram rail_urban rail rail_electric rail_fast ship container cable_car subway aircraft wheelchair scooter drone" speed="3.65" length="4.67" shape="365.23,1396.50 363.98,1397.21 363.08,1397.21 362.55,1396.49 362.38,1395.05"/>
    </edge>
    <edge id=":442877685_9" function="internal">
        <lane id=":442877685_9_0" index="0" disallow="pedestrian tram rail_urban rail rail_electric rail_fast ship container cable_car subway aircraft wheelchair scooter drone" speed="7.79" length="11.86" shape="352.26,1410.22 353.37,1406.54 353.49,1403.53 352.64,1401.17 350.81,1399.48"/>
    </edge>
    <edge id=":442877685_10" function="internal">
        <lane id=":442877685_10_0" index="0" disallow="pedestrian tram rail_urban rail rail_electric rail_fast ship container cable_car subway aircraft wheelchair scooter drone" speed="16.67" length="18.31" shape="352.26,1410.22 354.94,1404.91 357.73,1401.14 360.32,1398.12 362.38,1395.05"/>
    </edge>
    <edge id=":442877685_11" function="internal">
        <lane id=":442877685_11_0" index="0" disallow="pedestrian tram rail_urban rail rail_electric rail_fast ship container cable_car subway aircraft wheelchair scooter drone" speed="3.65" length="2.34" shape="355.24,1411.41 356.42,1410.59 357.31,1410.51"/>
    </edge>
    <edge id=":442877685_12" function="internal">
        <lane id=":442877685_12_0" index="0" disallow="pedestrian tram rail_urban rail rail_electric rail_fast ship container cable_car subway aircraft wheelchair scooter drone" speed="3.65" length="2.34" shape="357.31,1410.51 357.91,1411.18 358.21,1412.59"/>
    </edge>
    <edge id=":4883212482_0" function="internal">
        <lane id=":4883212482_0_0" index="0" allow="pedestrian bicycle" speed="5.56" length="13.54" width="2.00" shape="421.15,1363.70 417.79,1364.77 414.93,1366.30 412.42,1368.37 410.15,1371.06"/>
    </edge>
    <edge id=":4883212482_1" function="internal">
        <lane id=":4883212482_1_0" index="0" allow="pedestrian bicycle" speed="5.56" length="14.78" width="2.00" shape="421.15,1363.70 406.88,1367.56"/>
    </edge>
    <edge id=":4883212482_2" function="internal">
        <lane id=":4883212482_2_0" index="0" allow="pedestrian bicycle" speed="5.56" length="12.20" width="2.00" shape="421.15,1363.70 417.15,1364.25 415.23,1363.50 415.38,1361.44 417.60,1358.08"/>
    </edge>
    <edge id=":4883212482_3" function="internal">
        <lane id=":4883212482_3_0" index="0" allow="pedestrian bicycle" speed="2.89" length="2.92" width="2.00" shape="421.15,1363.70 420.30,1363.39 419.94,1362.96 420.07,1362.42 420.68,1361.76"/>
    </edge>
    <edge id=":4883212482_4" function="internal">
        <lane id=":4883212482_4_0" index="0" allow="pedestrian bicycle" speed="3.96" length="5.24" width="2.00" shape="419.16,1359.34 418.20,1360.79 418.13,1361.67 418.96,1361.99 420.68,1361.76"/>
    </edge>
    <edge id=":4883212482_5" function="internal">
        <lane id=":4883212482_5_0" index="0" allow="pedestrian bicycle" speed="5.56" length="14.78" width="2.00" shape="419.16,1359.34 410.15,1371.06"/>
    </edge>
    <edge id=":4883212482_6" function="internal">
        <lane id=":4883212482_6_0" index="0" allow="pedestrian bicycle" speed="5.56" length="14.98" width="2.00" shape="419.16,1359.34 416.58,1362.06 413.63,1364.36 410.37,1366.21 406.88,1367.56"/>
    </edge>
    <edge id=":4883212482_7" function="internal">
        <lane id=":4883212482_7_0" index="0" allow="pedestrian bicycle" speed="2.89" length="2.92" width="2.00" shape="419.16,1359.34 418.29,1359.61 417.75,1359.48 417.52,1358.98 417.60,1358.08"/>
    </edge>
    <edge id=":4883212482_8" function="internal">
        <lane id=":4883212482_8_0" index="0" allow="pedestrian bicycle" speed="5.56" length="13.82" width="2.00" shape="406.30,1365.65 409.64,1364.40 412.57,1362.78 415.18,1360.70 417.60,1358.08"/>
    </edge>
    <edge id=":4883212482_9" function="internal">
        <lane id=":4883212482_9_0" index="0" allow="pedestrian bicycle" speed="5.56" length="14.89" width="2.00" shape="406.30,1365.65 420.68,1361.76"/>
    </edge>
    <edge id=":4883212482_10" function="internal">
        <lane id=":4883212482_10_0" index="0" allow="pedestrian bicycle" speed="5.56" length="12.25" width="2.00" shape="406.30,1365.65 410.28,1364.86 412.25,1365.50 412.20,1367.57 410.15,1371.06"/>
    </edge>
    <edge id=":4883212482_11" function="internal">
        <lane id=":4883212482_11_0" index="0" allow="pedestrian bicycle" speed="2.89" length="2.92" width="2.00" shape="406.30,1365.65 407.16,1365.91 407.55,1366.32 407.45,1366.87 406.88,1367.56"/>
    </edge>
    <edge id=":4883212482_12" function="internal">
        <lane id=":4883212482_12_0" index="0" allow="pedestrian bicycle" speed="3.96" length="5.26" width="2.00" shape="408.53,1369.89 409.41,1368.39 409.43,1367.50 408.59,1367.22 406.88,1367.56"/>
    </edge>
    <edge id=":4883212482_13" function="internal">
        <lane id=":4883212482_13_0" index="0" allow="pedestrian bicycle" speed="5.56" length="14.89" width="2.00" shape="408.53,1369.89 417.60,1358.08"/>
    </edge>
    <edge id=":4883212482_14" function="internal">
        <lane id=":4883212482_14_0" index="0" allow="pedestrian bicycle" speed="5.56" length="14.90" width="2.00" shape="408.53,1369.89 410.99,1367.07 413.88,1364.74 417.14,1362.95 420.68,1361.76"/>
    </edge>
    <edge id=":4883212482_15" function="internal">
        <lane id=":4883212482_15_0" index="0" allow="pedestrian bicycle" speed="2.89" length="2.92" width="2.00" shape="408.53,1369.89 409.38,1369.57 409.93,1369.67 410.18,1370.16 410.15,1371.06"/>
    </edge>
    <edge id=":4883212484_0" function="internal">
        <lane id=":4883212484_0_0" index="0" allow="pedestrian bicycle" speed="5.56" length="9.39" width="2.00" shape="433.54,1317.33 432.16,1319.59 431.86,1321.44 432.07,1323.48 432.22,1326.30"/>
    </edge>
    <edge id=":4883212484_1" function="internal">
        <lane id=":4883212484_1_0" index="0" allow="pedestrian bicycle" speed="5.56" length="10.00" width="2.00" shape="433.54,1317.33 427.56,1325.35"/>
    </edge>
    <edge id=":4883212484_2" function="internal">
        <lane id=":4883212484_2_0" index="0" allow="pedestrian bicycle" speed="2.89" length="2.92" width="2.00" shape="433.54,1317.33 432.68,1317.61 432.14,1317.49 431.90,1316.98 431.98,1316.09"/>
    </edge>
    <edge id=":4883212484_3" function="internal">
        <lane id=":4883212484_3_0" index="0" allow="pedestrian bicycle" speed="5.56" length="10.08" width="2.00" shape="425.95,1324.16 431.98,1316.09"/>
    </edge>
    <edge id=":4883212484_4" function="internal">
        <lane id=":4883212484_4_0" index="0" allow="pedestrian bicycle" speed="5.56" length="12.80" width="2.00" shape="425.95,1324.16 428.79,1320.96 430.78,1320.24 431.92,1322.02 432.22,1326.30"/>
    </edge>
    <edge id=":4883212484_5" function="internal">
        <lane id=":4883212484_5_0" index="0" allow="pedestrian bicycle" speed="2.89" length="2.92" width="2.00" shape="425.95,1324.16 426.79,1323.85 427.34,1323.95 427.60,1324.44 427.56,1325.35"/>
    </edge>
    <edge id=":4883212484_6" function="internal">
        <lane id=":4883212484_6_0" index="0" allow="pedestrian bicycle" speed="3.99" length="5.43" width="2.00" shape="430.22,1326.25 430.09,1324.44 429.61,1323.68 428.76,1323.99 427.56,1325.35"/>
    </edge>
    <edge id=":4883212484_7" function="internal">
        <lane id=":4883212484_7_0" index="0" allow="pedestrian bicycle" speed="5.56" length="10.66" width="2.00" shape="430.22,1326.25 430.10,1323.10 429.97,1320.76 430.40,1318.62 431.98,1316.09"/>
    </edge>
    <edge id=":4883212484_8" function="internal">
        <lane id=":4883212484_8_0" index="0" allow="pedestrian bicycle" speed="2.89" length="2.92" width="2.00" shape="430.22,1326.25 430.73,1325.51 431.24,1325.27 431.73,1325.54 432.22,1326.30"/>
    </edge>
    <edge id=":4883212493_0" function="internal">
        <lane id=":4883212493_0_0" index="0" disallow="pedestrian tram rail_urban rail rail_electric rail_fast ship container cable_car subway aircraft wheelchair scooter drone" speed="16.67" length="6.74" shape="379.80,1420.19 374.44,1416.47"/>
        <lane id=":4883212493_0_1" index="1" disallow="pedestrian tram rail_urban rail rail_electric rail_fast ship container cable_car subway aircraft wheelchair scooter drone" speed="16.67" length="6.74" shape="381.69,1417.61 376.22,1413.81"/>
        <lane id=":4883212493_0_2" index="2" disallow="pedestrian tram rail_urban rail rail_electric rail_fast ship container cable_car subway aircraft wheelchair scooter drone" speed="16.67" length="6.74" shape="383.58,1415.03 377.99,1411.15"/>
        <lane id=":4883212493_0_3" index="3" disallow="pedestrian tram rail_urban rail rail_electric rail_fast ship container cable_car subway aircraft wheelchair scooter drone" speed="16.67" length="6.74" shape="385.48,1412.45 379.76,1408.48"/>
    </edge>
    <edge id=":4883212494_0" function="internal">
        <lane id=":4883212494_0_0" index="0" disallow="pedestrian tram rail_urban rail rail_electric rail_fast ship container cable_car subway aircraft wheelchair scooter drone" speed="16.67" length="5.30" shape="388.31,1399.69 392.82,1402.83"/>
        <lane id=":4883212494_0_1" index="1" disallow="pedestrian tram rail_urban rail rail_electric rail_fast ship container cable_car subway aircraft wheelchair scooter drone" speed="16.67" length="5.30" shape="386.55,1402.36 390.90,1405.39"/>
        <lane id=":4883212494_0_2" index="2" disallow="pedestrian tram rail_urban rail rail_electric rail_fast ship container cable_car subway aircraft wheelchair scooter drone" speed="16.67" length="5.30" shape="384.79,1405.03 388.99,1407.95"/>
    </edge>
    <edge id=":4883212496_0" function="internal">
        <lane id=":4883212496_0_0" index="0" disallow="pedestrian tram rail_urban rail rail_electric rail_fast ship container cable_car subway aircraft wheelchair scooter drone" speed="16.67" length="5.47" shape="377.28,1366.85 375.32,1371.96"/>
    </edge>
    <edge id=":4883212496_1" function="internal">
        <lane id=":4883212496_1_0" index="0" disallow="pedestrian tram rail_urban rail rail_electric rail_fast ship container cable_car subway aircraft wheelchair scooter drone" speed="16.67" length="5.50" shape="372.33,1370.83 374.30,1365.69"/>
    </edge>
    <edge id=":6066030393_0" function="internal">
        <lane id=":6066030393_0_0" index="0" disallow="pedestrian tram rail_urban rail rail_electric rail_fast ship container cable_car subway aircraft wheelchair scooter drone" speed="3.65" length="4.67" shape="340.27,1457.31 339.08,1458.13 338.19,1458.20 337.60,1457.53 337.30,1456.12"/>
    </edge>
    <edge id=":6690843805_0" function="internal">
        <lane id=":6690843805_0_0" index="0" allow="pedestrian bicycle" speed="5.56" length="13.17" width="2.00" shape="398.46,1370.10 394.11,1371.00 392.06,1370.38 392.29,1368.24 394.80,1364.59"/>
    </edge>
    <edge id=":6690843805_1" function="internal">
        <lane id=":6690843805_1_0" index="0" allow="pedestrian bicycle" speed="2.89" length="2.58" width="2.00" shape="398.46,1370.10 397.60,1369.84 397.21,1369.43 397.31,1368.88 397.66,1368.45"/>
    </edge>
    <edge id=":6690843805_4" function="internal">
        <lane id=":6690843805_4_0" index="0" allow="pedestrian bicycle" speed="2.89" length="0.34" width="2.00" shape="397.66,1368.45 397.88,1368.19"/>
    </edge>
    <edge id=":6690843805_2" function="internal">
        <lane id=":6690843805_2_0" index="0" allow="pedestrian bicycle" speed="4.00" length="5.54" width="2.00" shape="396.34,1365.87 395.29,1367.41 395.19,1368.30 396.05,1368.56 397.88,1368.19"/>
    </edge>
    <edge id=":6690843805_3" function="internal">
        <lane id=":6690843805_3_0" index="0" allow="pedestrian bicycle" speed="2.89" length="0.80" width="2.00" shape="396.34,1365.87 395.58,1366.10"/>
    </edge>
    <edge id=":6690843805_5" function="internal">
        <lane id=":6690843805_5_0" index="0" allow="pedestrian bicycle" speed="2.89" length="2.12" width="2.00" shape="395.58,1366.10 395.48,1366.13 394.94,1366.00 394.71,1365.49 394.80,1364.59"/>
    </edge>
    <edge id=":838386827_0" function="internal">
        <lane id=":838386827_0_0" index="0" disallow="pedestrian tram rail_urban rail rail_electric rail_fast ship container cable_car subway aircraft wheelchair scooter drone" speed="16.67" length="6.52" shape="348.45,1373.97 353.89,1377.05"/>
        <lane id=":838386827_0_1" index="1" disallow="pedestrian tram rail_urban rail rail_electric rail_fast ship container cable_car subway aircraft wheelchair scooter drone" speed="16.67" length="6.52" shape="346.79,1376.70 352.38,1379.87"/>
        <lane id=":838386827_0_2" index="2" disallow="pedestrian tram rail_urban rail rail_electric rail_fast ship container cable_car subway aircraft wheelchair scooter drone" speed="16.67" length="6.52" shape="345.12,1379.44 350.87,1382.70"/>
        <lane id=":838386827_0_3" index="3" disallow="pedestrian tram rail_urban rail rail_electric rail_fast ship container cable_car subway aircraft wheelchair scooter drone" speed="16.67" length="6.52" shape="343.46,1382.17 349.36,1385.52"/>
    </edge>
    <edge id=":838386912_0" function="internal">
        <lane id=":838386912_0_0" index="0" allow="pedestrian bicycle" speed="2.89" length="2.92" width="2.00" shape="452.60,1266.78 453.29,1266.19 453.84,1266.09 454.25,1266.47 454.52,1267.33"/>
    </edge>
    <edge id=":838386921_0" function="internal">
        <lane id=":838386921_0_0" index="0" disallow="pedestrian tram rail_urban rail rail_electric rail_fast ship container cable_car subway aircraft wheelchair scooter drone" speed="16.67" length="7.14" shape="361.11,1413.95 358.46,1420.59"/>
        <lane id=":838386921_0_1" index="1" disallow="pedestrian tram rail_urban rail rail_electric rail_fast ship container cable_car subway aircraft wheelchair scooter drone" speed="16.67" length="7.14" shape="358.14,1412.77 355.49,1419.40"/>
    </edge>
    <edge id=":838386921_2" function="internal">
        <lane id=":838386921_2_0" index="0" disallow="pedestrian tram rail_urban rail rail_electric rail_fast ship container cable_car subway aircraft wheelchair scooter drone" speed="16.67" length="7.12" shape="349.55,1417.02 352.19,1410.41"/>
        <lane id=":838386921_2_1" index="1" disallow="pedestrian tram rail_urban rail rail_electric rail_fast ship container cable_car subway aircraft wheelchair scooter drone" speed="16.67" length="7.12" shape="352.52,1418.21 355.16,1411.59"/>
    </edge>
    <edge id=":9117812638_0" function="internal">
        <lane id=":9117812638_0_0" index="0" allow="pedestrian bicycle" speed="2.89" length="2.92" width="2.00" shape="495.36,1338.49 496.21,1338.79 496.58,1339.21 496.46,1339.76 495.86,1340.43"/>
    </edge>
    <edge id=":9819793449_0" function="internal">
        <lane id=":9819793449_0_0" index="0" allow="pedestrian bicycle" speed="2.89" length="2.92" width="2.00" shape="406.48,1376.11 405.63,1376.43 405.08,1376.33 404.82,1375.84 404.86,1374.94"/>
    </edge>

    <edge id="-1014940961#0" from="838386921" to="442877685" priority="10" type="highway.tertiary">
        <lane id="-1014940961#0_0" index="0" disallow="pedestrian tram rail_urban rail rail_electric rail_fast ship container cable_car subway aircraft wheelchair scooter drone" speed="16.67" length="0.20" shape="352.19,1410.41 352.26,1410.22"/>
        <lane id="-1014940961#0_1" index="1" disallow="pedestrian tram rail_urban rail rail_electric rail_fast ship container cable_car subway aircraft wheelchair scooter drone" speed="16.67" length="0.20" shape="355.16,1411.59 355.24,1411.41"/>
    </edge>
    <edge id="-1014940961#1" from="6066030393" to="838386921" priority="10" type="highway.tertiary">
        <lane id="-1014940961#1_0" index="0" disallow="pedestrian tram rail_urban rail rail_electric rail_fast ship container cable_car subway aircraft wheelchair scooter drone" speed="16.67" length="40.85" shape="334.33,1454.93 349.55,1417.02"/>
        <lane id="-1014940961#1_1" index="1" disallow="pedestrian tram rail_urban rail rail_electric rail_fast ship container cable_car subway aircraft wheelchair scooter drone" speed="16.67" length="40.85" shape="337.30,1456.12 352.52,1418.21"/>
    </edge>
    <edge id="-1132706287" from="4883212484" to="6690843805" priority="1" type="highway.path" shape="431.40,1318.41 408.52,1349.64 390.37,1371.49">
        <lane id="-1132706287_0" index="0" allow="pedestrian bicycle" speed="5.56" length="51.17" width="2.00" shape="427.56,1325.35 409.30,1350.26 396.34,1365.87"/>
    </edge>
    <edge id="-1132706291" from="9819793449" to="4883212482" priority="1" type="highway.path">
        <lane id="-1132706291_0" index="0" allow="pedestrian bicycle" speed="5.56" length="6.24" width="2.00" shape="404.86,1374.94 408.53,1369.89"/>
    </edge>
    <edge id="-1132706292" from="6690843805" to="4883212482" priority="1" type="highway.path">
        <lane id="-1132706292_0" index="0" allow="pedestrian bicycle" speed="5.56" length="8.80" width="2.00" shape="397.88,1368.19 406.30,1365.65"/>
    </edge>
    <edge id="-452496647" from="442877685" to="275052200" priority="11" type="highway.secondary">
        <lane id="-452496647_0" index="0" disallow="tram rail_urban rail rail_electric rail_fast ship container cable_car subway aircraft wheelchair scooter drone" speed="16.67" length="0.20" shape="362.38,1395.05 362.47,1394.88"/>
    </edge>
    <edge id="-496642059" from="4883212482" to="9117812638" priority="1" type="highway.path" shape="413.72,1364.45 445.39,1356.86 451.58,1354.02 468.14,1346.44 495.61,1339.46">
        <lane id="-496642059_0" index="0" allow="pedestrian bicycle" speed="5.56" length="78.52" width="2.00" shape="420.68,1361.76 445.06,1355.91 451.17,1353.11 467.80,1345.49 495.36,1338.49"/>
    </edge>
    <edge id="-496642061#0" from="4883212484" to="838386912" priority="1" type="highway.path" shape="431.40,1318.41 442.99,1303.93 453.56,1267.05">
        <lane id="-496642061#0_0" index="0" allow="pedestrian bicycle" speed="5.56" length="54.33" width="2.00" shape="431.98,1316.09 442.08,1303.46 452.60,1266.78"/>
    </edge>
    <edge id="-496642061#1" from="4883212482" to="4883212484" priority="1" type="highway.path" shape="413.72,1364.45 430.82,1343.38 431.27,1323.83 431.40,1318.41">