<?xml version="1.0" encoding="UTF-8"?>

<!-- generated on 2024-09-03 01:37:54 by Eclipse SUMO netconvert Version 1.20.0
<configuration xmlns:xsi="http://www.w3.org/2001/XMLSchema-instance" xsi:noNamespaceSchemaLocation="http://sumo.dlr.de/xsd/netconvertConfiguration.xsd">

    <input>
        <osm-files value="train_files/roundabout/middle/osm_files/map(54).osm"/>
    </input>

    <output>
        <output-file value="train_files/roundabout/middle/outputs/map(54)_dict/map(54)/map(54).net.xml"/>
    </output>

    <projection>
        <proj.utm value="true"/>
    </projection>

    <building_defaults>
        <default.junctions.keep-clear value="false"/>
    </building_defaults>

</configuration>
-->

<net version="1.20" junctionCornerDetail="5" limitTurnSpeed="5.50" xmlns:xsi="http://www.w3.org/2001/XMLSchema-instance" xsi:noNamespaceSchemaLocation="http://sumo.dlr.de/xsd/net_file.xsd">

    <location netOffset="-466991.51,-5413645.66" convBoundary="0.00,0.00,411.04,192.12" origBoundary="2.549825,48.874901,2.555435,48.876628" projParameter="+proj=utm +zone=31 +ellps=WGS84 +datum=WGS84 +units=m +no_defs"/>

    <type id="highway.residential" priority="3" numLanes="1" speed="13.89" disallow="tram rail_urban rail rail_electric rail_fast ship container cable_car subway aircraft wheelchair scooter drone" oneway="0"/>
    <type id="highway.unclassified" priority="4" numLanes="1" speed="13.89" disallow="tram rail_urban rail rail_electric rail_fast ship container cable_car subway aircraft wheelchair scooter drone" oneway="0"/>

    <edge id=":1824537512_0" function="internal">
        <lane id=":1824537512_0_0" index="0" disallow="tram rail_urban rail rail_electric rail_fast ship container cable_car subway aircraft wheelchair scooter drone" speed="5.72" length="10.08" shape="231.07,96.00 229.23,98.86 228.93,100.93 230.17,102.20 232.94,102.69"/>
    </edge>
    <edge id=":1824537512_1" function="internal">
        <lane id=":1824537512_1_0" index="0" disallow="tram rail_urban rail rail_electric rail_fast ship container cable_car subway aircraft wheelchair scooter drone" speed="3.65" length="1.44" shape="231.07,96.00 229.70,96.44"/>
    </edge>
    <edge id=":1824537512_4" function="internal">
        <lane id=":1824537512_4_0" index="0" disallow="tram rail_urban rail rail_electric rail_fast ship container cable_car subway aircraft wheelchair scooter drone" speed="3.65" length="3.23" shape="229.70,96.44 228.82,96.25 228.45,95.44 228.58,94.00"/>
    </edge>
    <edge id=":1824537512_2" function="internal">
        <lane id=":1824537512_2_0" index="0" disallow="tram rail_urban rail rail_electric rail_fast ship container cable_car subway aircraft wheelchair scooter drone" speed="11.87" length="11.59" shape="218.96,99.80 222.11,99.09 224.45,98.05 226.45,96.44 228.58,94.00"/>
    </edge>
    <edge id=":1824537512_3" function="internal">
        <lane id=":1824537512_3_0" index="0" disallow="tram rail_urban rail rail_electric rail_fast ship container cable_car subway aircraft wheelchair scooter drone" speed="13.89" length="14.38" shape="218.96,99.80 222.53,99.88 225.93,100.89 229.34,102.07 232.94,102.69"/>
    </edge>
    <edge id=":917989349_0" function="internal">
        <lane id=":917989349_0_0" index="0" disallow="tram rail_urban rail rail_electric rail_fast ship container cable_car subway aircraft wheelchair scooter drone" speed="6.31" length="9.10" shape="176.69,69.99 174.76,68.52 172.82,68.13 170.88,68.82 168.93,70.59"/>
    </edge>
    <edge id=":917989349_1" function="internal">
        <lane id=":917989349_1_0" index="0" disallow="tram rail_urban rail rail_electric rail_fast ship container cable_car subway aircraft wheelchair scooter drone" speed="7.44" length="11.19" shape="176.69,69.99 174.25,67.03 172.94,64.42 172.75,62.14 173.69,60.20"/>
    </edge>
    <edge id=":917989349_2" function="internal">
        <lane id=":917989349_2_0" index="0" disallow="tram rail_urban rail rail_electric rail_fast ship container cable_car subway aircraft wheelchair scooter drone" speed="13.89" length="10.92" shape="176.08,62.33 168.93,70.59"/>
    </edge>
    <edge id=":917989349_3" function="internal">
        <lane id=":917989349_3_0" index="0" disallow="tram rail_urban rail rail_electric rail_fast ship container cable_car subway aircraft wheelchair scooter drone" speed="3.65" length="1.44" shape="176.08,62.33 174.68,62.70"/>
    </edge>
    <edge id=":917989349_6" function="internal">
        <lane id=":917989349_6_0" index="0" disallow="tram rail_urban rail rail_electric rail_fast ship container cable_car subway aircraft wheelchair scooter drone" speed="3.65" length="3.23" shape="174.68,62.70 173.82,62.46 173.48,61.63 173.69,60.20"/>
    </edge>
    <edge id=":917989349_4" function="internal">
        <lane id=":917989349_4_0" index="0" disallow="tram rail_urban rail rail_electric rail_fast ship container cable_car subway aircraft wheelchair scooter drone" speed="13.89" length="11.00" shape="166.49,68.52 173.69,60.20"/>
    </edge>
    <edge id=":917989349_5" function="internal">
        <lane id=":917989349_5_0" index="0" disallow="tram rail_urban rail rail_electric rail_fast ship container cable_car subway aircraft wheelchair scooter drone" speed="3.65" length="1.44" shape="166.49,68.52 167.87,68.12"/>
    </edge>
    <edge id=":917989349_7" function="internal">
        <lane id=":917989349_7_0" index="0" disallow="tram rail_urban rail rail_electric rail_fast ship container cable_car subway aircraft wheelchair scooter drone" speed="3.65" length="3.23" shape="167.87,68.12 168.74,68.33 169.09,69.15 168.93,70.59"/>
    </edge>
    <edge id=":917989351_0" function="internal">
        <lane id=":917989351_0_0" index="0" disallow="tram rail_urban rail rail_electric rail_fast ship container cable_car subway aircraft wheelchair scooter drone" speed="3.65" length="4.67" shape="225.64,-1.03 227.03,-1.43 227.90,-1.23 228.25,-0.41 228.10,1.03"/>
    </edge>
    <edge id=":917989357_0" function="internal">
        <lane id=":917989357_0_0" index="0" disallow="tram rail_urban rail rail_electric rail_fast ship container cable_car subway aircraft wheelchair scooter drone" speed="5.84" length="11.77" shape="131.61,114.74 129.96,117.38 130.35,119.00 132.78,119.60 137.25,119.18"/>
    </edge>
    <edge id=":917989357_1" function="internal">
        <lane id=":917989357_1_0" index="0" disallow="tram rail_urban rail rail_electric rail_fast ship container cable_car subway aircraft wheelchair scooter drone" speed="4.35" length="5.48" shape="131.61,114.74 130.73,116.19 129.81,116.69 128.85,116.26 127.86,114.89"/>
    </edge>
    <edge id=":917989357_2" function="internal">
        <lane id=":917989357_2_0" index="0" disallow="tram rail_urban rail rail_electric rail_fast ship container cable_car subway aircraft wheelchair scooter drone" speed="6.72" length="9.27" shape="123.02,121.55 125.36,120.80 126.95,119.44 127.78,117.47 127.86,114.89"/>
    </edge>
    <edge id=":917989357_3" function="internal">
        <lane id=":917989357_3_0" index="0" disallow="tram rail_urban rail rail_electric rail_fast ship container cable_car subway aircraft wheelchair scooter drone" speed="13.89" length="14.42" shape="123.02,121.55 137.25,119.18"/>
    </edge>
    <edge id=":917989363_0" function="internal">
        <lane id=":917989363_0_0" index="0" disallow="tram rail_urban rail rail_electric rail_fast ship container cable_car subway aircraft wheelchair scooter drone" speed="7.16" length="6.59" shape="202.95,106.18 203.77,104.87 204.17,103.40 204.15,101.75 203.71,99.93"/>
    </edge>
    <edge id=":917989363_1" function="internal">
        <lane id=":917989363_1_0" index="0" disallow="tram rail_urban rail rail_electric rail_fast ship container cable_car subway aircraft wheelchair scooter drone" speed="13.89" length="7.16" shape="202.95,106.18 204.36,104.61 205.48,103.67 206.77,102.96 208.70,102.09"/>
    </edge>
    <edge id=":917989364_0" function="internal">
        <lane id=":917989364_0_0" index="0" disallow="tram rail_urban rail rail_electric rail_fast ship container cable_car subway aircraft wheelchair scooter drone" speed="3.65" length="4.67" shape="277.74,28.34 278.75,27.32 279.61,27.08 280.32,27.63 280.88,28.96"/>
    </edge>
    <edge id=":917989386_0" function="internal">
        <lane id=":917989386_0_0" index="0" allow="emergency authority bus bicycle" speed="6.49" length="9.03" shape="191.15,116.55 191.11,114.07 191.86,112.17 193.42,110.86 195.79,110.14"/>
    </edge>
    <edge id=":917989386_1" function="internal">
        <lane id=":917989386_1_0" index="0" disallow="tram rail_urban rail rail_electric rail_fast ship container cable_car subway aircraft wheelchair scooter drone" speed="13.89" length="11.18" shape="184.73,111.78 195.79,110.14"/>
    </edge>

    <edge id="-78144966" from="917989364" to="1824537512" priority="3" type="highway.residential" shape="279.31,28.65 278.22,34.17 276.67,39.83 230.69,93.92 225.75,100.08">
        <lane id="-78144966_0" index="0" disallow="tram rail_urban rail rail_electric rail_fast ship container cable_car subway aircraft wheelchair scooter drone" speed="13.89" length="84.66" shape="280.88,28.96 279.78,34.54 278.12,40.59 231.93,94.94 231.07,96.00"/>
    </edge>
    <edge id="-78144980#0" from="917989349" to="917989351" priority="3" type="highway.residential" shape="171.13,65.50 174.42,61.82 223.43,4.12 226.87,0.00">
        <lane id="-78144980#0_0" index="0" disallow="tram rail_urban rail rail_electric rail_fast ship container cable_car subway aircraft wheelchair scooter drone" speed="13.89" length="80.30" shape="173.69,60.20 222.21,3.09 225.64,-1.03"/>
    </edge>
    <edge id="-78144980#1" from="917989357" to="917989349" priority="3" type="highway.residential" shape="130.04,120.41 129.46,114.81 171.13,65.50">
        <lane id="-78144980#1_0" index="0" disallow="tram rail_urban rail rail_electric rail_fast ship container cable_car subway aircraft wheelchair scooter drone" speed="13.89" length="60.54" shape="127.86,114.89 127.79,114.30 166.49,68.52"/>
    </edge>
    <edge id="164749061#0" from="917989386" to="917989363" priority="3" type="highway.residential" spreadType="center" shape="190.24,111.00 190.90,110.90 196.19,110.08 202.05,107.23 205.02,103.75">
        <lane id="164749061#0_0" index="0" disallow="tram rail_urban rail rail_electric rail_fast ship container cable_car subway aircraft wheelchair scooter drone" speed="13.89" length="8.31" shape="195.79,110.14 196.19,110.08 202.05,107.23 202.95,106.18"/>
    </edge>
    <edge id="164749061#1" from="917989363" to="1824537512" priority="3" type="highway.residential" spreadType="center" shape="205.02,103.75 210.88,101.11 214.69,100.51 219.11,99.77 225.75,100.08">
        <lane id="164749061#1_0" index="0" disallow="tram rail_urban rail rail_electric rail_fast ship container cable_car subway aircraft wheelchair scooter drone" speed="13.89" length="10.58" shape="208.70,102.09 210.88,101.11 214.69,100.51 218.96,99.80"/>
    </edge>
    <edge id="164749061#2" from="1824537512" to="247652097" priority="3" type="highway.residential" spreadType="center" shape="225.75,100.08 231.59,102.66 238.87,102.85 401.09,76.92 411.04,77.56">
        <lane id="164749061#2_0" index="0" disallow="tram rail_urban rail rail_electric rail_fast ship container cable_car subway aircraft wheelchair scooter drone" speed="13.89" length="180.18" shape="232.94,102.69 238.87,102.85 401.09,76.92 411.04,77.56"/>
    </edge>
    <edge id="171421618#0" from="247651367" to="917989357" priority="4" type="highway.unclassified" spreadType="center" shape="0.00,139.87 6.13,139.36 37.47,135.45 130.04,120.41">
        <lane id="171421618#0_0" index="0" disallow="tram rail_urban rail rail_electric rail_fast ship container cable_car subway aircraft wheelchair scooter drone" speed="13.89" length="124.40" shape="0.00,139.87 6.13,139.36 37.47,135.45 123.02,121.55"/>
    </edge>
    <edge id="171421618#1" from="917989357" to="917989386" priority="4" type="highway.unclassified" spreadType="center" shape="130.04,120.41 140.98,118.54 184.09,111.87 190.24,111.00">
        <lane id="171421618#1_0" index="0" disallow="tram rail_urban rail rail_electric rail_fast ship container cable_car subway aircraft wheelchair scooter drone" speed="13.89" length="48.06" shape="137.25,119.18 140.98,118.54 184.09,111.87 184.73,111.78"/>
    </edge>
    <edge id="78144966" from="1824537512" to="917989364" priority="3" type="highway.residential" shape="225.75,100.08 230.69,93.92 276.67,39.83 278.22,34.17 279.31,28.65">
        <lane id="78144966_0" index="0" disallow="tram rail_urban rail rail_electric rail_fast ship container cable_car subway aircraft wheelchair scooter drone" speed="13.89" length="83.09" shape="228.58,94.00 229.46,92.90 275.22,39.06 276.66,33.81 277.74,28.34"/>
    </edge>
    <edge id="78144968" from="1349546999" to="917989386" priority="3" type="highway.residential" spreadType="center" shape="203.26,192.12 202.78,188.98 201.65,181.14 190.91,115.06 190.24,111.00">
        <lane id="78144968_0" index="0" allow="emergency authority bus bicycle" speed="13.89" length="76.54" shape="203.26,192.12 202.78,188.98 201.65,181.14 191.15,116.55"/>
    </edge>
    <edge id="78144974" from="917989363" to="917989349" priority="3" type="highway.residential" spreadType="center" shape="205.02,103.75 202.73,97.07 176.07,69.33 171.13,65.50">
        <lane id="78144974_0" index="0" disallow="tram rail_urban rail rail_electric rail_fast ship container cable_car subway aircraft wheelchair scooter drone" speed="13.89" length="40.59" shape="203.71,99.93 202.73,97.07 176.69,69.99"/>
    </edge>
    <edge id="78144980#0" from="917989351" to="917989349" priority="3" type="highway.residential" shape="226.87,0.00 223.43,4.12 174.42,61.82 171.13,65.50">
        <lane id="78144980#0_0" index="0" disallow="tram rail_urban rail rail_electric rail_fast ship container cable_car subway aircraft wheelchair scooter drone" speed="13.89" length="80.41" shape="228.10,1.03 224.65,5.15 176.08,62.33"/>
    </edge>
    <edge id="78144980#1" from="917989349" to="917989357" priority="3" type="highway.residential" shape="171.13,65.50 129.46,114.81 130.04,120.41">
        <lane id="78144980#1_0" index="0" disallow="tram rail_urban rail rail_electric rail_fast ship container cable_car subway aircraft wheelchair scooter drone" speed="13.89" length="57.81" shape="168.93,70.59 131.61,114.74"/>
    </edge>

    <junction id="1349546999" type="dead_end" x="203.26" y="192.12" incLanes="" intLanes="" shape="204.84,191.88 201.68,192.36"/>
    <junction id="1824537512" type="priority" x="225.75" y="100.08" incLanes="-78144966_0 164749061#1_0" intLanes=":1824537512_0_0 :1824537512_4_0 :1824537512_2_0 :1824537512_3_0" shape="232.27,104.27 233.62,101.11 231.47,100.60 231.04,100.02 231.04,99.23 231.47,98.23 232.32,97.01 227.33,93.00 225.99,94.65 224.89,95.86 223.83,96.71 222.64,97.32 221.10,97.77 219.04,98.17 218.89,101.43 221.75,101.24 223.84,101.63 225.55,102.36 227.26,103.21 229.37,103.92">
        <request index="0" response="0000" foes="1000" cont="0"/>
        <request index="1" response="0100" foes="0100" cont="1"/>
        <request index="2" response="0000" foes="0010" cont="0"/>
        <request index="3" response="0001" foes="0001" cont="0"/>
    </junction>
    <junction id="247651367" type="dead_end" x="0.00" y="139.87" incLanes="" intLanes="" shape="0.13,141.47 -0.13,138.28"/>
    <junction id="247652097" type="dead_end" x="411.04" y="77.56" incLanes="164749061#2_0" intLanes="" shape="411.14,75.96 410.94,79.16"/>
    <junction id="917989349" type="priority" x="171.13" y="65.50" incLanes="78144974_0 78144980#0_0 -78144980#1_0" intLanes=":917989349_0_0 :917989349_1_0 :917989349_2_0 :917989349_6_0 :917989349_4_0 :917989349_7_0" shape="175.70,71.26 177.69,68.71 176.48,66.91 176.27,66.02 176.34,65.14 176.67,64.27 177.27,63.40 172.49,59.14 165.26,67.49 170.15,71.62 171.99,70.13 172.92,69.90 173.84,70.01 174.77,70.47">
        <request index="0" response="000100" foes="100100" cont="0"/>
        <request index="1" response="010100" foes="011100" cont="0"/>
        <request index="2" response="000000" foes="100011" cont="0"/>
        <request index="3" response="010010" foes="010010" cont="1"/>
        <request index="4" response="000000" foes="001010" cont="0"/>
        <request index="5" response="000101" foes="000101" cont="1"/>
    </junction>
    <junction id="917989351" type="priority" x="226.87" y="0.00" incLanes="-78144980#0_0" intLanes=":917989351_0_0" shape="226.87,-0.00 224.41,-2.05 226.87,0.00">
        <request index="0" response="0" foes="0" cont="0"/>
    </junction>
    <junction id="917989357" type="priority" x="130.04" y="120.41" incLanes="78144980#1_0 171421618#0_0" intLanes=":917989357_0_0 :917989357_1_0 :917989357_2_0 :917989357_3_0" shape="137.51,120.76 136.98,117.60 133.67,117.78 132.85,117.43 132.60,116.79 132.91,115.87 133.78,114.65 126.25,114.96 126.07,117.46 125.61,118.40 124.90,119.13 123.95,119.65 122.76,119.97 123.27,123.13">
        <request index="0" response="1000" foes="1000" cont="0"/>
        <request index="1" response="0100" foes="0100" cont="0"/>
        <request index="2" response="0000" foes="0010" cont="0"/>
        <request index="3" response="0000" foes="0001" cont="0"/>
    </junction>
    <junction id="917989363" type="priority" x="205.02" y="103.75" incLanes="164749061#0_0" intLanes=":917989363_0_0 :917989363_1_0" shape="209.36,103.55 208.04,100.63 206.81,100.91 206.30,100.80 205.87,100.51 205.51,100.04 205.22,99.41 202.20,100.45 202.60,102.28 202.59,103.10 202.44,103.85 202.15,104.53 201.73,105.14 204.17,107.21 205.78,105.48 206.45,104.96 207.18,104.54 208.11,104.11">
        <request index="0" response="00" foes="00" cont="0"/>
        <request index="1" response="00" foes="00" cont="0"/>
    </junction>
    <junction id="917989364" type="priority" x="279.31" y="28.65" incLanes="78144966_0" intLanes=":917989364_0_0" shape="279.31,28.65 276.17,28.04 279.31,28.65">
        <request index="0" response="0" foes="0" cont="0"/>
    </junction>
    <junction id="917989386" type="priority" x="190.24" y="111.00" incLanes="78144968_0 171421618#1_0" intLanes=":917989386_0_0 :917989386_1_0" shape="189.58,116.81 192.73,116.28 192.81,114.02 193.24,113.17 193.91,112.50 194.85,112.02 196.03,111.72 195.54,108.56 184.51,110.20 184.95,113.37 187.23,113.50 188.09,113.95 188.77,114.65 189.27,115.60">
        <request index="0" response="10" foes="10" cont="0"/>
        <request index="1" response="00" foes="01" cont="0"/>
    </junction>

    <junction id=":1824537512_4_0" type="internal" x="229.70" y="96.44" incLanes=":1824537512_1_0 164749061#1_0" intLanes=":1824537512_2_0"/>
    <junction id=":917989349_6_0" type="internal" x="174.68" y="62.70" incLanes=":917989349_3_0 -78144980#1_0 78144974_0" intLanes=":917989349_1_0 :917989349_4_0"/>
    <junction id=":917989349_7_0" type="internal" x="167.87" y="68.12" incLanes=":917989349_5_0 78144974_0 78144980#0_0" intLanes=":917989349_0_0 :917989349_2_0"/>

    <connection from="-78144966" to="164749061#2" fromLane="0" toLane="0" keepClear="0" via=":1824537512_0_0" dir="r" state="M"/>
    <connection from="-78144966" to="78144966" fromLane="0" toLane="0" keepClear="0" via=":1824537512_1_0" dir="t" state="m"/>
    <connection from="-78144980#0" to="78144980#0" fromLane="0" toLane="0" via=":917989351_0_0" dir="t" state="M"/>
    <connection from="-78144980#1" to="-78144980#0" fromLane="0" toLane="0" keepClear="0" via=":917989349_4_0" dir="s" state="M"/>
    <connection from="-78144980#1" to="78144980#1" fromLane="0" toLane="0" keepClear="0" via=":917989349_5_0" dir="t" state="m"/>
    <connection from="164749061#0" to="78144974" fromLane="0" toLane="0" via=":917989363_0_0" dir="r" state="M"/>
    <connection from="164749061#0" to="164749061#1" fromLane="0" toLane="0" via=":917989363_1_0" dir="s" state="M"/>
    <connection from="164749061#1" to="78144966" fromLane="0" toLane="0" keepClear="0" via=":1824537512_2_0" dir="r" state="M"/>
    <connection from="164749061#1" to="164749061#2" fromLane="0" toLane="0" keepClear="0" via=":1824537512_3_0" dir="s" state="m"/>
    <connection from="171421618#0" to="-78144980#1" fromLane="0" toLane="0" keepClear="0" via=":917989357_2_0" dir="r" state="M"/>
    <connection from="171421618#0" to="171421618#1" fromLane="0" toLane="0" keepClear="0" via=":917989357_3_0" dir="s" state="M"/>
    <connection from="171421618#1" to="164749061#0" fromLane="0" toLane="0" keepClear="0" via=":917989386_1_0" dir="s" state="M"/>
    <connection from="78144966" to="-78144966" fromLane="0" toLane="0" via=":917989364_0_0" dir="t" state="M"/>
    <connection from="78144968" to="164749061#0" fromLane="0" toLane="0" keepClear="0" via=":917989386_0_0" dir="l" state="m"/>
    <connection from="78144974" to="78144980#1" fromLane="0" toLane="0" keepClear="0" via=":917989349_0_0" dir="r" state="m"/>
    <connection from="78144974" to="-78144980#0" fromLane="0" toLane="0" keepClear="0" via=":917989349_1_0" dir="l" state="m"/>
    <connection from="78144980#0" to="78144980#1" fromLane="0" toLane="0" keepClear="0" via=":917989349_2_0" dir="s" state="M"/>
    <connection from="78144980#0" to="-78144980#0" fromLane="0" toLane="0" keepClear="0" via=":917989349_3_0" dir="t" state="m"/>
    <connection from="78144980#1" to="171421618#1" fromLane="0" toLane="0" keepClear="0" via=":917989357_0_0" dir="r" state="m"/>
    <connection from="78144980#1" to="-78144980#1" fromLane="0" toLane="0" keepClear="0" via=":917989357_1_0" dir="t" state="m"/>

    <connection from=":1824537512_0" to="164749061#2" fromLane="0" toLane="0" dir="r" state="M"/>
    <connection from=":1824537512_1" to="78144966" fromLane="0" toLane="0" via=":1824537512_4_0" dir="t" state="m"/>
    <connection from=":1824537512_4" to="78144966" fromLane="0" toLane="0" dir="t" state="M"/>
    <connection from=":1824537512_2" to="78144966" fromLane="0" toLane="0" dir="r" state="M"/>
    <connection from=":1824537512_3" to="164749061#2" fromLane="0" toLane="0" dir="s" state="M"/>
    <connection from=":917989349_0" to="78144980#1" fromLane="0" toLane="0" dir="r" state="M"/>
    <connection from=":917989349_1" to="-78144980#0" fromLane="0" toLane="0" dir="l" state="M"/>
    <connection from=":917989349_2" to="78144980#1" fromLane="0" toLane="0" dir="s" state="M"/>
    <connection from=":917989349_3" to="-78144980#0" fromLane="0" toLane="0" via=":917989349_6_0" dir="t" state="m"/>
    <connection from=":917989349_6" to="-78144980#0" fromLane="0" toLane="0" dir="t" state="M"/>
    <connection from=":917989349_4" to="-78144980#0" fromLane="0" toLane="0" dir="s" state="M"/>
    <connection from=":917989349_5" to="78144980#1" fromLane="0" toLane="0" via=":917989349_7_0" dir="t" state="m"/>
    <connection from=":917989349_7" to="78144980#1" fromLane="0" toLane="0" dir="t" state="M"/>
    <connection from=":917989351_0" to="78144980#0" fromLane="0" toLane="0" dir="t" state="M"/>
    <connection from=":917989357_0" to="171421618#1" fromLane="0" toLane="0" dir="r" state="M"/>
    <connection from=":917989357_1" to="-78144980#1" fromLane="0" toLane="0" dir="t" state="M"/>
    <connection from=":917989357_2" to="-78144980#1" fromLane="0" toLane="0" dir="r" state="M"/>
    <connection from=":917989357_3" to="171421618#1" fromLane="0" toLane="0" dir="s" state="M"/>
    <connection from=":917989363_0" to="78144974" fromLane="0" toLane="0" dir="r" state="M"/>
    <connection from=":917989363_1" to="164749061#1" fromLane="0" toLane="0" dir="s" state="M"/>
    <connection from=":917989364_0" to="-78144966" fromLane="0" toLane="0" dir="t" state="M"/>
    <connection from=":917989386_0" to="164749061#0" fromLane="0" toLane="0" dir="l" state="M"/>
    <connection from=":917989386_1" to="164749061#0" fromLane="0" toLane="0" dir="s" state="M"/>

</net>
