<?xml version="1.0" encoding="UTF-8"?>

<!-- generated on 2024-09-03 01:37:58 by Eclipse SUMO netconvert Version 1.20.0
<configuration xmlns:xsi="http://www.w3.org/2001/XMLSchema-instance" xsi:noNamespaceSchemaLocation="http://sumo.dlr.de/xsd/netconvertConfiguration.xsd">

    <input>
        <osm-files value="train_files/roundabout/middle/osm_files/map(6).osm"/>
    </input>

    <output>
        <output-file value="train_files/roundabout/middle/outputs/map(6)_dict/map(6)/map(6).net.xml"/>
    </output>

    <projection>
        <proj.utm value="true"/>
    </projection>

    <building_defaults>
        <default.junctions.keep-clear value="false"/>
    </building_defaults>

</configuration>
-->

<net version="1.20" junctionCornerDetail="5" limitTurnSpeed="5.50" xmlns:xsi="http://www.w3.org/2001/XMLSchema-instance" xsi:noNamespaceSchemaLocation="http://sumo.dlr.de/xsd/net_file.xsd">

    <location netOffset="-446396.13,-5409612.40" convBoundary="0.00,0.00,566.77,768.86" origBoundary="2.269483,48.837220,2.277230,48.844124" projParameter="+proj=utm +zone=31 +ellps=WGS84 +datum=WGS84 +units=m +no_defs"/>

    <type id="highway.cycleway" priority="1" numLanes="1" speed="5.56" allow="bicycle" oneway="0" width="2.00"/>
    <type id="highway.footway" priority="1" numLanes="1" speed="2.78" allow="pedestrian" oneway="1" width="2.00"/>
    <type id="highway.primary" priority="12" numLanes="2" speed="27.78" disallow="tram rail_urban rail rail_electric rail_fast ship container cable_car subway aircraft wheelchair scooter drone" oneway="0"/>
    <type id="highway.residential" priority="3" numLanes="1" speed="13.89" disallow="tram rail_urban rail rail_electric rail_fast ship container cable_car subway aircraft wheelchair scooter drone" oneway="0"/>
    <type id="highway.service" priority="1" numLanes="1" speed="5.56" allow="pedestrian delivery bicycle" oneway="0"/>
    <type id="highway.steps" priority="1" numLanes="1" speed="1.39" allow="pedestrian" oneway="1" width="2.00"/>
    <type id="railway.rail" priority="20" numLanes="1" speed="44.44" allow="rail" oneway="1"/>

    <edge id=":10755854558_0" function="internal">
        <lane id=":10755854558_0_0" index="0" allow="pedestrian delivery bicycle" speed="5.56" length="8.52" shape="191.29,334.23 186.76,327.01"/>
    </edge>
    <edge id=":10755854558_1" function="internal">
        <lane id=":10755854558_1_0" index="0" allow="pedestrian delivery bicycle" speed="4.96" length="5.29" shape="191.29,334.23 188.40,332.70 187.32,330.99"/>
    </edge>
    <edge id=":10755854558_4" function="internal">
        <lane id=":10755854558_4_0" index="0" allow="pedestrian delivery bicycle" speed="4.96" length="5.29" shape="187.32,330.99 188.03,329.10 190.55,327.02"/>
    </edge>
    <edge id=":10755854558_2" function="internal">
        <lane id=":10755854558_2_0" index="0" allow="pedestrian delivery bicycle" speed="5.56" length="1.45" shape="189.78,325.80 190.55,327.02"/>
    </edge>
    <edge id=":10755854558_3" function="internal">
        <lane id=":10755854558_3_0" index="0" allow="pedestrian delivery bicycle" speed="3.67" length="1.33" shape="189.78,325.80 189.51,327.10"/>
    </edge>
    <edge id=":10755854558_5" function="internal">
        <lane id=":10755854558_5_0" index="0" allow="pedestrian delivery bicycle" speed="3.67" length="3.42" shape="189.51,327.10 189.48,327.23 188.88,327.91 187.97,327.84 186.76,327.01"/>
    </edge>
    <edge id=":1096679669_0" function="internal">
        <lane id=":1096679669_0_0" index="0" allow="rail rail_electric rail_fast" speed="16.67" length="0.23" shape="145.49,382.18 145.59,382.39"/>
    </edge>
    <edge id=":1096679845_0" function="internal">
        <lane id=":1096679845_0_0" index="0" allow="rail rail_electric rail_fast" speed="16.67" length="0.28" shape="121.10,316.09 121.19,316.35"/>
    </edge>
    <edge id=":11070931253_0" function="internal">
        <lane id=":11070931253_0_0" index="0" disallow="tram rail_urban rail rail_electric rail_fast ship container cable_car subway aircraft wheelchair scooter drone" speed="8.33" length="0.29" shape="170.98,304.48 170.83,304.22"/>
    </edge>
    <edge id=":11070931253_1" function="internal">
        <lane id=":11070931253_1_0" index="0" disallow="tram rail_urban rail rail_electric rail_fast ship container cable_car subway aircraft wheelchair scooter drone" speed="8.33" length="0.30" shape="173.60,302.62 173.75,302.89"/>
    </edge>
    <edge id=":130234449_0" function="internal">
        <lane id=":130234449_0_0" index="0" disallow="pedestrian tram rail_urban rail rail_electric rail_fast ship container cable_car subway aircraft wheelchair scooter drone" speed="8.33" length="9.92" shape="216.09,401.87 214.79,399.81 213.65,398.56 212.27,397.55 210.21,396.20"/>
        <lane id=":130234449_0_1" index="1" disallow="pedestrian tram rail_urban rail rail_electric rail_fast ship container cable_car subway aircraft wheelchair scooter drone" speed="8.33" length="9.92" shape="218.46,399.59 217.04,397.37 215.78,396.06 214.25,395.00 212.00,393.55"/>
        <lane id=":130234449_0_2" index="2" disallow="pedestrian tram rail_urban rail rail_electric rail_fast ship container cable_car subway aircraft wheelchair scooter drone" speed="8.33" length="9.92" shape="218.46,399.59 217.27,396.81 216.74,394.68 215.90,392.82 213.80,390.90"/>
        <lane id=":130234449_0_3" index="3" disallow="pedestrian tram rail_urban rail rail_electric rail_fast ship container cable_car subway aircraft wheelchair scooter drone" speed="8.33" length="9.92" shape="218.46,399.59 217.47,396.14 217.75,393.25 217.67,390.69 215.59,388.25"/>
    </edge>
    <edge id=":130234851_0" function="internal">
        <lane id=":130234851_0_0" index="0" disallow="pedestrian tram rail_urban rail rail_electric rail_fast ship container cable_car subway aircraft wheelchair scooter drone" speed="8.33" length="14.20" shape="179.33,375.26 176.66,373.17 174.83,371.53 172.82,370.49 169.63,370.17"/>
        <lane id=":130234851_0_1" index="1" disallow="pedestrian tram rail_urban rail rail_electric rail_fast ship container cable_car subway aircraft wheelchair scooter drone" speed="8.33" length="14.20" shape="181.11,372.59 177.95,370.20 175.74,368.40 173.33,367.30 169.57,366.97"/>
        <lane id=":130234851_0_2" index="2" disallow="pedestrian tram rail_urban rail rail_electric rail_fast ship container cable_car subway aircraft wheelchair scooter drone" speed="8.33" length="14.20" shape="182.88,369.93 179.24,367.23 176.66,365.27 173.84,364.10 169.51,363.77"/>
        <lane id=":130234851_0_3" index="3" disallow="pedestrian tram rail_urban rail rail_electric rail_fast ship container cable_car subway aircraft wheelchair scooter drone" speed="8.33" length="14.20" shape="184.65,367.26 180.53,364.25 177.57,362.13 174.36,360.90 169.45,360.57"/>
    </edge>
    <edge id=":130234851_4" function="internal">
        <lane id=":130234851_4_0" index="0" disallow="pedestrian tram rail_urban rail rail_electric rail_fast ship container cable_car subway aircraft wheelchair scooter drone" speed="8.33" length="12.30" shape="182.68,365.34 178.93,366.49 176.26,366.92 173.53,366.97 169.57,366.97"/>
        <lane id=":130234851_4_1" index="1" disallow="pedestrian tram rail_urban rail rail_electric rail_fast ship container cable_car subway aircraft wheelchair scooter drone" speed="8.33" length="12.30" shape="181.63,362.32 178.16,363.37 175.70,363.75 173.17,363.77 169.51,363.77"/>
        <lane id=":130234851_4_2" index="2" disallow="pedestrian tram rail_urban rail rail_electric rail_fast ship container cable_car subway aircraft wheelchair scooter drone" speed="8.33" length="12.30" shape="180.58,359.29 177.39,360.25 175.13,360.58 172.81,360.58 169.45,360.57"/>
    </edge>
    <edge id=":130234860_0" function="internal">
        <lane id=":130234860_0_0" index="0" disallow="pedestrian tram rail_urban rail rail_electric rail_fast ship container cable_car subway aircraft wheelchair scooter drone" speed="7.25" length="5.87" shape="184.61,327.45 184.50,328.62 184.76,329.90 185.41,331.30 186.45,332.82"/>
    </edge>
    <edge id=":130234860_1" function="internal">
        <lane id=":130234860_1_0" index="0" allow="bicycle" speed="6.95" length="12.69" width="2.00" shape="185.19,327.61 184.05,330.78 182.59,333.33 180.73,335.65 178.37,338.11"/>
    </edge>
    <edge id=":130234860_2" function="internal">
        <lane id=":130234860_2_0" index="0" disallow="pedestrian tram rail_urban rail rail_electric rail_fast ship container cable_car subway aircraft wheelchair scooter drone" speed="8.33" length="7.31" shape="180.34,327.63 182.52,328.62 183.87,329.60 184.98,330.88 186.45,332.82"/>
        <lane id=":130234860_2_1" index="1" disallow="pedestrian tram rail_urban rail rail_electric rail_fast ship container cable_car subway aircraft wheelchair scooter drone" speed="8.33" length="7.31" shape="178.36,330.29 180.32,331.15 181.56,331.97 182.59,333.08 183.92,334.79"/>
        <lane id=":130234860_2_2" index="2" disallow="pedestrian tram rail_urban rail rail_electric rail_fast ship container cable_car subway aircraft wheelchair scooter drone" speed="8.33" length="7.31" shape="176.38,332.94 178.13,333.68 179.26,334.35 180.21,335.27 181.39,336.75"/>
    </edge>
    <edge id=":130234860_5" function="internal">
        <lane id=":130234860_5_0" index="0" allow="bicycle" speed="5.02" length="6.46" width="2.00" shape="176.16,333.50 178.12,334.51 179.14,335.62 179.22,336.82 178.37,338.11"/>
    </edge>
    <edge id=":130234864_0" function="internal">
        <lane id=":130234864_0_0" index="0" disallow="pedestrian tram rail_urban rail rail_electric rail_fast ship container cable_car subway aircraft wheelchair scooter drone" speed="7.93" length="7.44" shape="143.11,338.19 145.41,337.73 147.24,337.04 148.61,336.11 149.51,334.93"/>
        <lane id=":130234864_0_1" index="1" disallow="pedestrian tram rail_urban rail rail_electric rail_fast ship container cable_car subway aircraft wheelchair scooter drone" speed="8.33" length="10.51" shape="143.53,341.36 146.60,340.72 149.09,339.68 151.01,338.24 152.35,336.41"/>
        <lane id=":130234864_0_2" index="2" disallow="pedestrian tram rail_urban rail rail_electric rail_fast ship container cable_car subway aircraft wheelchair scooter drone" speed="8.33" length="13.58" shape="143.94,344.53 147.78,343.70 150.94,342.32 153.41,340.38 155.19,337.88"/>
    </edge>
    <edge id=":130234864_3" function="internal">
        <lane id=":130234864_3_0" index="0" disallow="tram rail_urban rail rail_electric rail_fast ship container cable_car subway aircraft wheelchair scooter drone" speed="8.33" length="11.44" shape="147.96,347.79 147.59,343.86 147.44,341.09 147.95,338.46 149.51,334.93"/>
        <lane id=":130234864_3_1" index="1" disallow="tram rail_urban rail rail_electric rail_fast ship container cable_car subway aircraft wheelchair scooter drone" speed="8.33" length="11.44" shape="151.19,348.03 150.82,344.48 150.60,341.98 150.98,339.59 152.35,336.41"/>
        <lane id=":130234864_3_2" index="2" disallow="tram rail_urban rail rail_electric rail_fast ship container cable_car subway aircraft wheelchair scooter drone" speed="8.33" length="11.44" shape="154.41,348.26 154.04,345.10 153.76,342.86 154.01,340.72 155.19,337.88"/>
        <lane id=":130234864_3_3" index="3" disallow="tram rail_urban rail rail_electric rail_fast ship container cable_car subway aircraft wheelchair scooter drone" speed="8.33" length="11.44" shape="154.41,348.26 154.52,345.45 155.26,343.61 156.48,341.87 158.03,339.36"/>
    </edge>
    <edge id=":130234866_0" function="internal">
        <lane id=":130234866_0_0" index="0" allow="bicycle" speed="5.83" length="4.28" width="2.00" shape="147.94,352.49 147.42,351.48 146.73,350.71 145.86,350.17 144.82,349.88"/>
    </edge>
    <edge id=":130234866_1" function="internal">
        <lane id=":130234866_1_0" index="0" disallow="tram rail_urban rail rail_electric rail_fast ship container cable_car subway aircraft wheelchair scooter drone" speed="8.33" length="2.54" shape="148.50,352.28 148.12,351.06 148.01,350.19 148.02,349.29 147.98,347.99"/>
        <lane id=":130234866_1_1" index="1" disallow="tram rail_urban rail rail_electric rail_fast ship container cable_car subway aircraft wheelchair scooter drone" speed="8.33" length="2.54" shape="151.33,350.71 151.14,350.01 151.13,349.50 151.20,348.97 151.20,348.23"/>
        <lane id=":130234866_1_2" index="2" disallow="tram rail_urban rail rail_electric rail_fast ship container cable_car subway aircraft wheelchair scooter drone" speed="8.33" length="2.54" shape="154.16,349.14 154.43,348.46"/>
    </edge>
    <edge id=":130234866_4" function="internal">
        <lane id=":130234866_4_0" index="0" allow="bicycle" speed="5.56" length="13.07" width="2.00" shape="157.73,349.40 154.41,350.26 151.35,350.53 148.26,350.35 144.82,349.88"/>
    </edge>
    <edge id=":130234866_5" function="internal">
        <lane id=":130234866_5_0" index="0" allow="bicycle" speed="5.65" length="8.31" width="2.00" shape="157.73,349.40 154.71,350.21 152.51,350.29 151.14,349.64 150.61,348.27"/>
        <lane id=":130234866_5_1" index="1" allow="bicycle" speed="4.38" length="4.69" width="2.00" shape="157.73,349.40 156.08,349.82 154.88,349.81 154.13,349.37 153.83,348.50"/>
    </edge>
    <edge id=":130234868_0" function="internal">
        <lane id=":130234868_0_0" index="0" disallow="pedestrian tram rail_urban rail rail_electric rail_fast ship container cable_car subway aircraft wheelchair scooter drone" speed="8.33" length="13.74" shape="155.74,365.52 152.34,363.42 149.70,362.55 146.84,362.27 142.76,361.95"/>
        <lane id=":130234868_0_1" index="1" disallow="pedestrian tram rail_urban rail rail_electric rail_fast ship container cable_car subway aircraft wheelchair scooter drone" speed="8.33" length="15.37" shape="157.59,362.90 153.79,360.54 150.85,359.51 147.66,359.15 143.11,358.77"/>
        <lane id=":130234868_0_2" index="2" disallow="pedestrian tram rail_urban rail rail_electric rail_fast ship container cable_car subway aircraft wheelchair scooter drone" speed="8.33" length="16.99" shape="159.44,360.29 155.23,357.65 152.00,356.47 148.49,356.03 143.45,355.59"/>
    </edge>
    <edge id=":130234868_3" function="internal">
        <lane id=":130234868_3_0" index="0" disallow="pedestrian tram rail_urban rail rail_electric rail_fast ship container cable_car subway aircraft wheelchair scooter drone" speed="8.33" length="12.74" shape="161.28,357.67 157.27,356.09 153.74,355.99 150.80,355.43 148.57,352.47"/>
        <lane id=":130234868_3_1" index="1" disallow="pedestrian tram rail_urban rail rail_electric rail_fast ship container cable_car subway aircraft wheelchair scooter drone" speed="8.33" length="12.74" shape="161.28,357.67 157.97,355.95 155.30,355.09 153.15,353.84 151.40,350.90"/>
        <lane id=":130234868_3_2" index="2" disallow="pedestrian tram rail_urban rail rail_electric rail_fast ship container cable_car subway aircraft wheelchair scooter drone" speed="8.33" length="12.74" shape="161.28,357.67 158.57,355.76 156.81,354.24 155.52,352.35 154.23,349.33"/>
    </edge>
    <edge id=":130235719_0" function="internal">
        <lane id=":130235719_0_0" index="0" disallow="tram rail_urban rail rail_electric rail_fast ship container cable_car subway aircraft wheelchair scooter drone" speed="8.33" length="6.46" shape="195.37,314.25 193.80,315.31 192.87,316.22 192.08,317.30 190.94,318.85"/>
    </edge>
    <edge id=":130235719_1" function="internal">
        <lane id=":130235719_1_0" index="0" allow="bus bicycle" speed="3.65" length="1.33" shape="195.37,314.25 194.04,314.18"/>
    </edge>
    <edge id=":130235719_4" function="internal">
        <lane id=":130235719_4_0" index="0" allow="bus bicycle" speed="3.65" length="3.34" shape="194.04,314.18 193.93,314.18 193.18,313.70 193.11,312.80 193.73,311.50"/>
    </edge>
    <edge id=":130235719_2" function="internal">
        <lane id=":130235719_2_0" index="0" allow="bus bicycle" speed="8.33" length="6.91" shape="188.53,315.98 190.20,314.85 191.16,313.79 192.10,312.72 193.73,311.50"/>
    </edge>
    <edge id=":130235719_3" function="internal">
        <lane id=":130235719_3_0" index="0" allow="bus bicycle" speed="5.14" length="2.56" shape="188.53,315.98 190.86,314.93"/>
    </edge>
    <edge id=":130235719_5" function="internal">
        <lane id=":130235719_5_0" index="0" allow="bus bicycle" speed="5.14" length="7.29" shape="190.86,314.93 191.69,314.55 193.15,314.55 192.90,315.98 190.94,318.85"/>
    </edge>
    <edge id=":130238449_0" function="internal">
        <lane id=":130238449_0_0" index="0" disallow="pedestrian tram rail_urban rail rail_electric rail_fast ship container cable_car subway aircraft wheelchair scooter drone" speed="8.33" length="0.27" shape="215.11,379.17 215.27,379.44"/>
        <lane id=":130238449_0_1" index="1" disallow="pedestrian tram rail_urban rail rail_electric rail_fast ship container cable_car subway aircraft wheelchair scooter drone" speed="8.33" length="0.27" shape="212.38,380.84 212.50,381.03"/>
    </edge>
    <edge id=":134607235_0" function="internal">
        <lane id=":134607235_0_0" index="0" allow="bicycle" speed="6.95" length="6.76" width="2.00" shape="129.52,337.37 130.75,337.26 132.66,336.54 134.58,335.67 135.83,335.10"/>
    </edge>
    <edge id=":134607235_1" function="internal">
        <lane id=":134607235_1_0" index="0" disallow="pedestrian tram rail_urban rail rail_electric rail_fast ship container cable_car subway aircraft wheelchair scooter drone" speed="8.33" length="9.36" shape="129.25,337.90 131.34,338.70 132.91,338.75 134.56,338.47 136.89,338.27"/>
        <lane id=":134607235_1_1" index="1" disallow="pedestrian tram rail_urban rail rail_electric rail_fast ship container cable_car subway aircraft wheelchair scooter drone" speed="8.33" length="9.36" shape="127.78,340.75 130.29,341.75 132.16,341.91 134.13,341.67 136.92,341.47"/>
        <lane id=":134607235_1_2" index="2" disallow="pedestrian tram rail_urban rail rail_electric rail_fast ship container cable_car subway aircraft wheelchair scooter drone" speed="8.33" length="9.36" shape="126.32,343.59 129.23,344.80 131.41,345.06 133.70,344.86 136.94,344.67"/>
    </edge>
    <edge id=":134607235_4" function="internal">
        <lane id=":134607235_4_0" index="0" allow="bicycle" speed="5.37" length="4.11" width="2.00" shape="126.05,344.12 129.97,345.35"/>
    </edge>
    <edge id=":134607235_5" function="internal">
        <lane id=":134607235_5_0" index="0" allow="bicycle" speed="5.56" length="13.50" width="2.00" shape="127.97,345.17 128.71,341.83 130.27,339.03 132.64,336.79 135.83,335.10"/>
    </edge>
    <edge id=":134607235_6" function="internal">
        <lane id=":134607235_6_0" index="0" allow="bicycle" speed="6.95" length="10.81" width="2.00" shape="127.97,345.17 128.68,343.31 130.40,341.98 133.15,341.16 136.91,340.87"/>
        <lane id=":134607235_6_1" index="1" allow="bicycle" speed="6.66" length="9.16" width="2.00" shape="127.97,345.17 128.57,344.72 130.26,344.38 133.05,344.16 136.94,344.07"/>
    </edge>
    <edge id=":134607235_8" function="internal">
        <lane id=":134607235_8_0" index="0" allow="bicycle" speed="2.89" length="2.92" width="2.00" shape="127.97,345.17 128.54,344.47 129.06,344.27 129.53,344.56 129.97,345.35"/>
    </edge>
    <edge id=":1756681040_0" function="internal">
        <lane id=":1756681040_0_0" index="0" disallow="tram rail_urban rail rail_electric rail_fast ship container cable_car subway aircraft wheelchair scooter drone" speed="8.33" length="1.27" shape="168.33,325.06 168.94,324.97 169.37,324.94 169.80,324.95 170.42,325.02"/>
        <lane id=":1756681040_0_1" index="1" disallow="tram rail_urban rail rail_electric rail_fast ship container cable_car subway aircraft wheelchair scooter drone" speed="8.33" length="1.27" shape="168.80,328.22 169.17,328.17 169.43,328.15 169.69,328.16 170.06,328.20"/>
        <lane id=":1756681040_0_2" index="2" disallow="tram rail_urban rail rail_electric rail_fast ship container cable_car subway aircraft wheelchair scooter drone" speed="8.33" length="1.27" shape="169.28,331.39 169.40,331.37 169.49,331.36 169.57,331.37 169.70,331.38"/>
    </edge>
    <edge id=":330426441_0" function="internal">
        <lane id=":330426441_0_0" index="0" allow="rail rail_electric rail_fast" speed="16.67" length="0.10" shape="149.36,380.88 149.36,380.88"/>
    </edge>
    <edge id=":330426442_0" function="internal">
        <lane id=":330426442_0_0" index="0" allow="rail rail_electric rail_fast" speed="16.67" length="0.30" shape="125.15,314.95 125.04,314.67"/>
    </edge>
    <edge id=":344524471_0" function="internal">
        <lane id=":344524471_0_0" index="0" disallow="tram rail_urban rail rail_electric rail_fast ship container cable_car subway aircraft wheelchair scooter drone" speed="8.33" length="16.08" shape="131.13,360.69 126.17,359.87 122.90,358.71 119.77,357.05 115.23,354.74"/>
        <lane id=":344524471_0_1" index="1" disallow="tram rail_urban rail rail_electric rail_fast ship container cable_car subway aircraft wheelchair scooter drone" speed="8.33" length="16.08" shape="131.47,357.51 126.82,356.73 123.77,355.61 120.84,354.02 116.58,351.84"/>
        <lane id=":344524471_0_2" index="2" disallow="tram rail_urban rail rail_electric rail_fast ship container cable_car subway aircraft wheelchair scooter drone" speed="8.33" length="16.08" shape="131.82,354.33 127.48,353.59 124.63,352.51 121.91,350.99 117.94,348.94"/>
    </edge>
    <edge id=":344524471_3" function="internal">
        <lane id=":344524471_3_0" index="0" allow="bicycle" speed="6.95" length="12.17" width="2.00" shape="131.89,353.73 128.31,353.08 125.36,351.99 123.04,350.44 121.35,348.46"/>
    </edge>
    <edge id=":344524471_4" function="internal">
        <lane id=":344524471_4_0" index="0" allow="bicycle" speed="5.65" length="6.45" width="2.00" shape="131.89,353.73 129.88,353.31 128.48,352.54 127.70,351.44 127.54,349.99"/>
    </edge>
    <edge id=":344524471_5" function="internal">
        <lane id=":344524471_5_0" index="0" allow="bicycle" speed="6.95" length="16.19" width="2.00" shape="129.53,350.17 128.44,353.32 125.87,354.74 121.84,354.43 116.33,352.38"/>
    </edge>
    <edge id=":344524471_6" function="internal">
        <lane id=":344524471_6_0" index="0" allow="bicycle" speed="5.56" length="14.22" width="2.00" shape="129.53,350.17 128.69,353.82 127.04,354.75 124.60,352.96 121.35,348.46"/>
    </edge>
    <edge id=":344524471_7" function="internal">
        <lane id=":344524471_7_0" index="0" allow="bicycle" speed="2.89" length="2.92" width="2.00" shape="129.53,350.17 128.97,350.87 128.45,351.08 127.97,350.78 127.54,349.99"/>
    </edge>
    <edge id=":344524471_8" function="internal">
        <lane id=":344524471_8_0" index="0" allow="bicycle" speed="4.58" length="7.42" width="2.00" shape="123.05,347.40 124.88,350.06 126.24,351.37 127.12,351.35 127.54,349.99"/>
    </edge>
    <edge id=":344524471_9" function="internal">
        <lane id=":344524471_9_0" index="0" allow="bicycle" speed="5.26" length="10.43" width="2.00" shape="123.05,347.40 124.22,349.95 123.71,351.15 121.53,350.99 117.68,349.48"/>
    </edge>
    <edge id=":344524471_10" function="internal">
        <lane id=":344524471_10_0" index="0" allow="bicycle" speed="2.89" length="2.92" width="2.00" shape="123.05,347.40 123.02,348.30 122.73,348.78 122.17,348.83 121.35,348.46"/>
    </edge>
    <edge id=":344524471_11" function="internal">
        <lane id=":344524471_11_0" index="0" allow="pedestrian delivery bicycle" speed="8.33" length="15.76" shape="127.85,363.60 127.07,361.94 124.71,359.90 120.76,357.50 115.23,354.74"/>
    </edge>
    <edge id=":344524471_12" function="internal">
        <lane id=":344524471_12_0" index="0" allow="bicycle" speed="6.95" length="16.43" width="2.00" shape="127.25,363.60 126.72,359.72 125.31,355.74 123.39,351.91 121.35,348.46"/>
    </edge>
    <edge id=":344524471_13" function="internal">
        <lane id=":344524471_13_0" index="0" allow="bicycle" speed="6.95" length="13.61" width="2.00" shape="127.25,363.60 127.54,349.99"/>
    </edge>
    <edge id=":367043265_0" function="internal">
        <lane id=":367043265_0_0" index="0" allow="bus bicycle" speed="3.65" length="4.67" shape="209.28,302.23 210.72,302.30 211.47,302.78 211.54,303.67 210.92,304.98"/>
    </edge>
    <edge id=":3945473897_0" function="internal">
        <lane id=":3945473897_0_0" index="0" allow="pedestrian delivery bicycle" speed="8.33" length="5.07" shape="137.27,388.81 134.81,384.37"/>
    </edge>
    <edge id=":5312118009_0" function="internal">
        <lane id=":5312118009_0_0" index="0" disallow="pedestrian tram rail_urban rail rail_electric rail_fast ship container cable_car subway aircraft wheelchair scooter drone" speed="8.33" length="23.06" shape="186.57,332.98 190.66,338.58 193.26,342.79 195.52,346.91 198.63,352.26"/>
        <lane id=":5312118009_0_1" index="1" disallow="pedestrian tram rail_urban rail rail_electric rail_fast ship container cable_car subway aircraft wheelchair scooter drone" speed="8.33" length="23.06" shape="186.57,332.98 190.32,338.96 192.02,343.82 193.37,348.55 196.05,354.17"/>
    </edge>
    <edge id=":5312118009_2" function="internal">
        <lane id=":5312118009_2_0" index="0" disallow="pedestrian tram rail_urban rail rail_electric rail_fast ship container cable_car subway aircraft wheelchair scooter drone" speed="8.33" length="22.51" shape="184.04,334.94 187.61,340.38 189.76,345.68 190.49,350.85 189.80,355.87"/>
        <lane id=":5312118009_2_1" index="1" disallow="pedestrian tram rail_urban rail rail_electric rail_fast ship container cable_car subway aircraft wheelchair scooter drone" speed="8.33" length="21.40" shape="181.52,336.91 185.25,342.61 187.17,347.78 187.28,352.41 185.59,356.51"/>
        <lane id=":5312118009_2_2" index="2" disallow="pedestrian tram rail_urban rail rail_electric rail_fast ship container cable_car subway aircraft wheelchair scooter drone" speed="8.33" length="21.83" shape="181.52,336.91 184.20,341.65 185.06,346.61 184.08,351.79 181.28,357.17"/>
    </edge>
    <edge id=":5312118010_0" function="internal">
        <lane id=":5312118010_0_0" index="0" disallow="pedestrian tram rail_urban rail rail_electric rail_fast ship container cable_car subway aircraft wheelchair scooter drone" speed="8.33" length="2.59" shape="181.26,365.40 182.87,365.27"/>
        <lane id=":5312118010_0_1" index="1" disallow="pedestrian tram rail_urban rail rail_electric rail_fast ship container cable_car subway aircraft wheelchair scooter drone" speed="8.33" length="2.59" shape="179.31,362.86 181.82,362.25"/>
        <lane id=":5312118010_0_2" index="2" disallow="pedestrian tram rail_urban rail rail_electric rail_fast ship container cable_car subway aircraft wheelchair scooter drone" speed="8.33" length="2.59" shape="177.36,360.33 180.77,359.23"/>
    </edge>
    <edge id=":5422138714_0" function="internal">
        <lane id=":5422138714_0_0" index="0" disallow="tram rail_urban rail rail_electric rail_fast ship container cable_car subway aircraft wheelchair scooter drone" speed="7.91" length="1.38" shape="185.31,326.05 185.06,326.37 184.90,326.61 184.79,326.87 184.67,327.26"/>
    </edge>
    <edge id=":5422138714_1" function="internal">
        <lane id=":5422138714_1_0" index="0" disallow="tram rail_urban rail rail_electric rail_fast ship container cable_car subway aircraft wheelchair scooter drone" speed="6.47" length="3.39" shape="183.48,324.08 184.67,327.26"/>
    </edge>
    <edge id=":5422138715_0" function="internal">
        <lane id=":5422138715_0_0" index="0" allow="bus bicycle" speed="5.83" length="7.07" shape="178.95,315.51 180.17,317.31 181.52,318.34 183.00,318.60 184.60,318.09"/>
    </edge>
    <edge id=":5422138715_1" function="internal">
        <lane id=":5422138715_1_0" index="0" disallow="tram rail_urban rail rail_electric rail_fast ship container cable_car subway aircraft wheelchair scooter drone" speed="8.33" length="9.50" shape="178.95,315.51 183.39,323.91"/>
    </edge>
    <edge id=":5422138715_2" function="internal">
        <lane id=":5422138715_2_0" index="0" allow="bus bicycle" speed="8.33" length="9.41" shape="176.32,322.54 184.60,318.09"/>
    </edge>
    <edge id=":5422138715_3" function="internal">
        <lane id=":5422138715_3_0" index="0" allow="bus bicycle" speed="6.22" length="8.19" shape="176.32,322.54 178.61,321.63 180.56,321.56 182.15,322.31 183.39,323.91"/>
    </edge>
    <edge id=":5594286970_0" function="internal">
        <lane id=":5594286970_0_0" index="0" disallow="tram rail_urban rail rail_electric rail_fast ship container cable_car subway aircraft wheelchair scooter drone" speed="3.65" length="4.67" shape="166.75,297.13 166.84,295.69 167.34,294.95 168.23,294.89 169.52,295.54"/>
    </edge>
    <edge id=":6151067644_0" function="internal">
        <lane id=":6151067644_0_0" index="0" disallow="tram rail_urban rail rail_electric rail_fast ship container cable_car subway aircraft wheelchair scooter drone" speed="8.33" length="0.30" shape="203.63,309.33 203.37,309.48"/>
    </edge>
    <edge id=":6151067644_1" function="internal">
        <lane id=":6151067644_1_0" index="0" allow="bus bicycle" speed="8.33" length="0.30" shape="201.73,306.73 201.99,306.58"/>
    </edge>
    <edge id=":747483919_0" function="internal">
        <lane id=":747483919_0_0" index="0" disallow="tram rail_urban rail rail_electric rail_fast ship container cable_car subway aircraft wheelchair scooter drone" speed="8.33" length="7.07" shape="177.00,308.57 177.80,310.47 177.97,311.93 178.12,313.39 178.85,315.33"/>
    </edge>
    <edge id=":747483919_1" function="internal">
        <lane id=":747483919_1_0" index="0" disallow="tram rail_urban rail rail_electric rail_fast ship container cable_car subway aircraft wheelchair scooter drone" speed="3.65" length="1.44" shape="177.00,308.57 176.91,310.01"/>
    </edge>