<?xml version="1.0" encoding="UTF-8"?>

<!-- generated on 2024-09-03 01:37:08 by Eclipse SUMO netconvert Version 1.20.0
<configuration xmlns:xsi="http://www.w3.org/2001/XMLSchema-instance" xsi:noNamespaceSchemaLocation="http://sumo.dlr.de/xsd/netconvertConfiguration.xsd">

    <input>
        <osm-files value="train_files/intersection/easy/osm_files/map(53).osm"/>
    </input>

    <output>
        <output-file value="train_files/intersection/easy/outputs/map(53)_dict/map(53)/map(53).net.xml"/>
    </output>

    <projection>
        <proj.utm value="true"/>
    </projection>

    <building_defaults>
        <default.junctions.keep-clear value="false"/>
    </building_defaults>

</configuration>
-->

<net version="1.20" junctionCornerDetail="5" limitTurnSpeed="5.50" xmlns:xsi="http://www.w3.org/2001/XMLSchema-instance" xsi:noNamespaceSchemaLocation="http://sumo.dlr.de/xsd/net_file.xsd">

    <location netOffset="-470319.33,-5413508.67" convBoundary="0.00,0.00,270.10,339.68" origBoundary="2.595214,48.873829,2.598896,48.876886" projParameter="+proj=utm +zone=31 +ellps=WGS84 +datum=WGS84 +units=m +no_defs"/>

    <type id="highway.cycleway" priority="1" numLanes="1" speed="5.56" allow="bicycle" oneway="0" width="2.00"/>
    <type id="highway.footway" priority="1" numLanes="1" speed="2.78" allow="pedestrian" oneway="1" width="2.00"/>
    <type id="highway.primary" priority="12" numLanes="2" speed="27.78" disallow="tram rail_urban rail rail_electric rail_fast ship container cable_car subway aircraft wheelchair scooter drone" oneway="0"/>
    <type id="highway.primary_link" priority="7" numLanes="1" speed="22.22" disallow="tram rail_urban rail rail_electric rail_fast ship container cable_car subway aircraft wheelchair scooter drone" oneway="0"/>
    <type id="highway.residential" priority="3" numLanes="1" speed="13.89" disallow="tram rail_urban rail rail_electric rail_fast ship container cable_car subway aircraft wheelchair scooter drone" oneway="0"/>
    <type id="highway.service" priority="1" numLanes="1" speed="5.56" allow="pedestrian delivery bicycle" oneway="0"/>

    <edge id=":2382530605_0" function="internal">
        <lane id=":2382530605_0_0" index="0" disallow="tram rail_urban rail rail_electric rail_fast ship container cable_car subway aircraft wheelchair scooter drone" speed="9.92" length="8.03" shape="89.03,204.05 90.57,205.89 91.69,207.24 93.03,208.13 95.24,208.58"/>
    </edge>
    <edge id=":2382530605_1" function="internal">
        <lane id=":2382530605_1_0" index="0" disallow="tram rail_urban rail rail_electric rail_fast ship container cable_car subway aircraft wheelchair scooter drone" speed="13.89" length="5.73" shape="89.59,207.94 95.24,208.58"/>
        <lane id=":2382530605_1_1" index="1" disallow="tram rail_urban rail rail_electric rail_fast ship container cable_car subway aircraft wheelchair scooter drone" speed="13.89" length="5.73" shape="89.23,211.12 94.97,211.77"/>
    </edge>
    <edge id=":2382530613_0" function="internal">
        <lane id=":2382530613_0_0" index="0" disallow="tram rail_urban rail rail_electric rail_fast ship container cable_car subway aircraft wheelchair scooter drone" speed="13.89" length="0.27" shape="74.86,193.28 74.83,193.00"/>
    </edge>
    <edge id=":2382530613_1" function="internal">
        <lane id=":2382530613_1_0" index="0" disallow="tram rail_urban rail rail_electric rail_fast ship container cable_car subway aircraft wheelchair scooter drone" speed="13.89" length="0.31" shape="81.20,192.37 81.23,192.69"/>
        <lane id=":2382530613_1_1" index="1" disallow="tram rail_urban rail rail_electric rail_fast ship container cable_car subway aircraft wheelchair scooter drone" speed="13.89" length="0.31" shape="78.01,192.69 78.04,192.98"/>
    </edge>
    <edge id=":2382530619_0" function="internal">
        <lane id=":2382530619_0_0" index="0" disallow="tram rail_urban rail rail_electric rail_fast ship container cable_car subway aircraft wheelchair scooter drone" speed="13.89" length="0.10" shape="76.50,233.92 76.50,233.92"/>
    </edge>
    <edge id=":2382530626_0" function="internal">
        <lane id=":2382530626_0_0" index="0" disallow="tram rail_urban rail rail_electric rail_fast ship container cable_car subway aircraft wheelchair scooter drone" speed="22.22" length="4.82" shape="85.95,193.80 86.17,195.21 86.34,196.18 86.57,197.13 86.98,198.50"/>
    </edge>
    <edge id=":2382530636_0" function="internal">
        <lane id=":2382530636_0_0" index="0" disallow="tram rail_urban rail rail_electric rail_fast ship container cable_car subway aircraft wheelchair scooter drone" speed="13.89" length="6.65" shape="86.46,227.13 87.66,233.69"/>
        <lane id=":2382530636_0_1" index="1" disallow="tram rail_urban rail rail_electric rail_fast ship container cable_car subway aircraft wheelchair scooter drone" speed="13.89" length="6.65" shape="83.32,227.73 84.51,234.24"/>
    </edge>
    <edge id=":2382530642_0" function="internal">
        <lane id=":2382530642_0_0" index="0" disallow="tram rail_urban rail rail_electric rail_fast ship container cable_car subway aircraft wheelchair scooter drone" speed="13.89" length="0.28" shape="62.06,204.89 62.31,204.91"/>
        <lane id=":2382530642_0_1" index="1" disallow="tram rail_urban rail rail_electric rail_fast ship container cable_car subway aircraft wheelchair scooter drone" speed="13.89" length="0.28" shape="61.77,208.07 62.09,208.10"/>
    </edge>
    <edge id=":2382530645_0" function="internal">
        <lane id=":2382530645_0_0" index="0" disallow="tram rail_urban rail rail_electric rail_fast ship container cable_car subway aircraft wheelchair scooter drone" speed="22.22" length="0.26" shape="85.71,192.23 85.75,192.49"/>
    </edge>
    <edge id=":2382530650_0" function="internal">
        <lane id=":2382530650_0_0" index="0" disallow="tram rail_urban rail rail_electric rail_fast ship container cable_car subway aircraft wheelchair scooter drone" speed="13.89" length="5.49" shape="76.26,232.87 75.93,231.28 75.79,230.17 75.74,229.05 75.67,227.42"/>
    </edge>
    <edge id=":2382530654_0" function="internal">
        <lane id=":2382530654_0_0" index="0" disallow="tram rail_urban rail rail_electric rail_fast ship container cable_car subway aircraft wheelchair scooter drone" speed="13.89" length="0.30" shape="99.06,221.22 98.76,221.19"/>
        <lane id=":2382530654_0_1" index="1" disallow="tram rail_urban rail rail_electric rail_fast ship container cable_car subway aircraft wheelchair scooter drone" speed="13.89" length="0.30" shape="99.36,218.03 99.06,218.01"/>
    </edge>
    <edge id=":2382530661_0" function="internal">
        <lane id=":2382530661_0_0" index="0" disallow="tram rail_urban rail rail_electric rail_fast ship container cable_car subway aircraft wheelchair scooter drone" speed="22.22" length="0.10" shape="92.95,215.72 92.95,215.72"/>
    </edge>
    <edge id=":2382534141_0" function="internal">
        <lane id=":2382534141_0_0" index="0" disallow="tram rail_urban rail rail_electric rail_fast ship container cable_car subway aircraft wheelchair scooter drone" speed="22.22" length="5.56" shape="63.50,210.24 65.14,210.34 66.26,210.48 67.36,210.76 68.94,211.24"/>
    </edge>
    <edge id=":2382534144_0" function="internal">
        <lane id=":2382534144_0_0" index="0" disallow="tram rail_urban rail rail_electric rail_fast ship container cable_car subway aircraft wheelchair scooter drone" speed="9.47" length="13.15" shape="72.55,225.79 70.91,222.53 68.79,220.11 66.16,218.52 63.05,217.76"/>
    </edge>
    <edge id=":2382534144_1" function="internal">
        <lane id=":2382534144_1_0" index="0" disallow="tram rail_urban rail rail_electric rail_fast ship container cable_car subway aircraft wheelchair scooter drone" speed="13.89" length="10.38" shape="73.34,218.92 63.05,217.76"/>
        <lane id=":2382534144_1_1" index="1" disallow="tram rail_urban rail rail_electric rail_fast ship container cable_car subway aircraft wheelchair scooter drone" speed="13.89" length="10.38" shape="73.71,215.74 63.37,214.58"/>
    </edge>
    <edge id=":2382534148_0" function="internal">
        <lane id=":2382534148_0_0" index="0" disallow="tram rail_urban rail rail_electric rail_fast ship container cable_car subway aircraft wheelchair scooter drone" speed="3.65" length="4.67" shape="107.42,230.18 106.30,229.29 105.96,228.46 106.43,227.69 107.69,227.00"/>
    </edge>
    <edge id=":2382534149_0" function="internal">
        <lane id=":2382534149_0_0" index="0" disallow="tram rail_urban rail rail_electric rail_fast ship container cable_car subway aircraft wheelchair scooter drone" speed="3.65" length="4.67" shape="126.87,228.62 128.00,229.52 128.33,230.35 127.87,231.12 126.60,231.81"/>
    </edge>
    <edge id=":2382534153_0" function="internal">
        <lane id=":2382534153_0_0" index="0" disallow="tram rail_urban rail rail_electric rail_fast ship container cable_car subway aircraft wheelchair scooter drone" speed="22.22" length="0.21" shape="61.99,210.16 62.20,210.18"/>
    </edge>
    <edge id=":2382534157_0" function="internal">
        <lane id=":2382534157_0_0" index="0" disallow="tram rail_urban rail rail_electric rail_fast ship container cable_car subway aircraft wheelchair scooter drone" speed="13.89" length="5.60" shape="63.49,204.99 69.15,205.54"/>
        <lane id=":2382534157_0_1" index="1" disallow="tram rail_urban rail rail_electric rail_fast ship container cable_car subway aircraft wheelchair scooter drone" speed="13.89" length="5.60" shape="63.27,208.18 68.76,208.71"/>
    </edge>
    <edge id=":2382534162_0" function="internal">
        <lane id=":2382534162_0_0" index="0" disallow="tram rail_urban rail rail_electric rail_fast ship container cable_car subway aircraft wheelchair scooter drone" speed="13.89" length="5.70" shape="75.38,199.30 74.89,193.62"/>
    </edge>
    <edge id=":2382534162_1" function="internal">
        <lane id=":2382534162_1_0" index="0" disallow="tram rail_urban rail rail_electric rail_fast ship container cable_car subway aircraft wheelchair scooter drone" speed="13.89" length="6.83" shape="81.26,193.03 80.93,194.89 79.93,196.04 78.92,197.18 78.57,199.04"/>
    </edge>
    <edge id=":247637215_0" function="internal">
        <lane id=":247637215_0_0" index="0" disallow="tram rail_urban rail rail_electric rail_fast ship container cable_car subway aircraft wheelchair scooter drone" speed="3.65" length="4.67" shape="72.46,164.86 73.21,163.63 73.99,163.19 74.81,163.56 75.66,164.73"/>
    </edge>
    <edge id=":266643638_0" function="internal">
        <lane id=":266643638_0_0" index="0" disallow="tram rail_urban rail rail_electric rail_fast ship container cable_car subway aircraft wheelchair scooter drone" speed="5.98" length="9.08" shape="91.18,220.49 88.59,220.62 86.90,221.58 86.11,223.35 86.24,225.95"/>
        <lane id=":266643638_0_1" index="1" disallow="tram rail_urban rail rail_electric rail_fast ship container cable_car subway aircraft wheelchair scooter drone" speed="7.59" length="15.39" shape="91.48,217.31 87.08,217.53 84.21,219.14 82.88,222.15 83.09,226.55"/>
    </edge>
    <edge id=":266643638_2" function="internal">
        <lane id=":266643638_2_0" index="0" disallow="tram rail_urban rail rail_electric rail_fast ship container cable_car subway aircraft wheelchair scooter drone" speed="13.89" length="15.99" shape="91.48,217.31 86.73,217.37 83.49,218.19 80.25,219.02 75.49,219.15"/>
        <lane id=":266643638_2_1" index="1" disallow="tram rail_urban rail rail_electric rail_fast ship container cable_car subway aircraft wheelchair scooter drone" speed="13.89" length="15.99" shape="91.48,217.31 75.74,215.96"/>
    </edge>
    <edge id=":266643638_4" function="internal">
        <lane id=":266643638_4_0" index="0" disallow="tram rail_urban rail rail_electric rail_fast ship container cable_car subway aircraft wheelchair scooter drone" speed="20.83" length="13.95" shape="81.77,212.32 83.72,216.12 84.78,218.86 85.45,221.73 86.24,225.95"/>
        <lane id=":266643638_4_1" index="1" disallow="tram rail_urban rail rail_electric rail_fast ship container cable_car subway aircraft wheelchair scooter drone" speed="20.83" length="13.95" shape="78.95,213.85 80.77,217.39 81.75,219.94 82.37,222.63 83.09,226.55"/>
    </edge>
    <edge id=":266643638_6" function="internal">
        <lane id=":266643638_6_0" index="0" disallow="tram rail_urban rail rail_electric rail_fast ship container cable_car subway aircraft wheelchair scooter drone" speed="4.37" length="0.48" shape="78.95,213.85 79.09,214.32"/>
    </edge>
    <edge id=":266643638_8" function="internal">
        <lane id=":266643638_8_0" index="0" disallow="tram rail_urban rail rail_electric rail_fast ship container cable_car subway aircraft wheelchair scooter drone" speed="4.37" length="4.57" shape="79.09,214.32 79.26,214.91 78.82,215.61 77.65,215.96 75.74,215.96"/>
    </edge>
    <edge id=":266643638_7" function="internal">
        <lane id=":266643638_7_0" index="0" disallow="tram rail_urban rail rail_electric rail_fast ship container cable_car subway aircraft wheelchair scooter drone" speed="12.63" length="14.78" shape="76.52,213.68 78.70,215.68 80.52,218.50 81.99,222.12 83.09,226.55"/>
    </edge>
    <edge id=":2667102968_0" function="internal">
        <lane id=":2667102968_0_0" index="0" allow="bicycle" speed="5.56" length="4.95" width="1.50" shape="71.12,193.68 71.03,195.14 70.88,196.17 70.46,197.08 69.55,198.20"/>
    </edge>
    <edge id=":2667102968_1" function="internal">
        <lane id=":2667102968_1_0" index="0" allow="bicycle" speed="2.50" length="2.19" width="1.50" shape="71.12,193.68 70.71,194.21 70.32,194.38 69.96,194.16 69.62,193.58"/>
    </edge>
    <edge id=":2667102968_2" function="internal">
        <lane id=":2667102968_2_0" index="0" allow="bicycle" speed="5.56" length="4.02" width="1.50" shape="68.38,197.26 69.11,196.35 69.45,195.61 69.56,194.77 69.62,193.58"/>
    </edge>
    <edge id=":2667102968_3" function="internal">
        <lane id=":2667102968_3_0" index="0" allow="bicycle" speed="2.50" length="2.19" width="1.50" shape="68.38,197.26 69.03,197.05 69.44,197.14 69.61,197.52 69.55,198.20"/>
    </edge>
    <edge id=":2667103030_0" function="internal">
        <lane id=":2667103030_0_0" index="0" allow="pedestrian delivery bicycle" speed="6.26" length="4.81" shape="54.05,201.73 54.76,202.86 55.60,203.70 56.59,204.25 57.71,204.50"/>
    </edge>
    <edge id=":2667103030_1" function="internal">
        <lane id=":2667103030_1_0" index="0" disallow="tram rail_urban rail rail_electric rail_fast ship container cable_car subway aircraft wheelchair scooter drone" speed="13.89" length="6.76" shape="50.98,203.90 57.71,204.50"/>
        <lane id=":2667103030_1_1" index="1" disallow="tram rail_urban rail rail_electric rail_fast ship container cable_car subway aircraft wheelchair scooter drone" speed="13.89" length="6.76" shape="50.70,207.09 57.43,207.69"/>
    </edge>
    <edge id=":2667103045_0" function="internal">
        <lane id=":2667103045_0_0" index="0" allow="pedestrian delivery bicycle" speed="6.53" length="5.43" shape="55.80,217.03 54.62,217.11 53.48,217.57 52.38,218.42 51.32,219.65"/>
    </edge>
    <edge id=":2667103045_1" function="internal">
        <lane id=":2667103045_1_0" index="0" disallow="tram rail_urban rail rail_electric rail_fast ship container cable_car subway aircraft wheelchair scooter drone" speed="13.89" length="6.73" shape="55.80,217.03 49.11,216.38"/>
        <lane id=":2667103045_1_1" index="1" disallow="tram rail_urban rail rail_electric rail_fast ship container cable_car subway aircraft wheelchair scooter drone" speed="13.89" length="6.73" shape="56.12,213.85 49.42,213.20"/>
    </edge>
    <edge id=":2667103048_0" function="internal">
        <lane id=":2667103048_0_0" index="0" allow="pedestrian delivery bicycle" speed="5.56" length="4.84" shape="51.20,219.81 50.30,220.82 49.32,221.52 48.25,221.89 47.10,221.93"/>
    </edge>
    <edge id=":2667103051_0" function="internal">
        <lane id=":2667103051_0_0" index="0" allow="bicycle" speed="5.56" length="4.52" width="1.50" shape="68.04,199.83 67.26,200.51 66.31,200.99 65.20,201.29 63.94,201.41"/>
    </edge>
    <edge id=":2667103051_1" function="internal">
        <lane id=":2667103051_1_0" index="0" allow="bicycle" speed="2.51" length="2.22" width="1.50" shape="68.04,199.83 67.36,199.89 66.98,199.71 66.89,199.29 67.10,198.64"/>
    </edge>
    <edge id=":2667103051_2" function="internal">
        <lane id=":2667103051_2_0" index="0" allow="bicycle" speed="5.56" length="3.53" width="1.50" shape="63.91,199.91 64.88,199.82 65.74,199.58 66.48,199.18 67.10,198.64"/>
    </edge>
    <edge id=":2667103051_3" function="internal">
        <lane id=":2667103051_3_0" index="0" allow="bicycle" speed="2.50" length="2.19" width="1.50" shape="63.91,199.91 64.48,200.27 64.68,200.65 64.49,201.02 63.94,201.41"/>
    </edge>
    <edge id=":2667103054_0" function="internal">
        <lane id=":2667103054_0_0" index="0" allow="bicycle" speed="3.30" length="3.52" width="1.50" shape="57.07,200.75 55.70,200.24 54.85,200.14 54.52,200.45 54.72,201.17"/>
    </edge>
    <edge id=":2667103054_1" function="internal">
        <lane id=":2667103054_1_0" index="0" allow="bicycle" speed="2.50" length="2.19" width="1.50" shape="57.07,200.75 56.71,200.18 56.68,199.76 57.01,199.49 57.67,199.38"/>
    </edge>
    <edge id=":2667103054_2" function="internal">
        <lane id=":2667103054_2_0" index="0" allow="bicycle" speed="5.56" length="8.36" width="1.50" shape="49.86,196.57 52.28,197.01 53.88,197.56 55.43,198.31 57.67,199.38"/>
    </edge>
    <edge id=":2667103054_3" function="internal">
        <lane id=":2667103054_3_0" index="0" allow="pedestrian delivery bicycle" speed="5.56" length="6.12" shape="49.74,197.41 50.88,197.79 51.96,198.60 52.99,199.86 53.96,201.55"/>
    </edge>
    <edge id=":764583679_0" function="internal">
        <lane id=":764583679_0_0" index="0" allow="bicycle" speed="5.56" length="4.82" width="1.50" shape="63.74,201.41 58.92,201.31"/>
    </edge>
    <edge id=":764583679_1" function="internal">
        <lane id=":764583679_1_0" index="0" allow="bicycle" speed="2.50" length="2.19" width="1.50" shape="63.74,201.41 63.17,201.04 62.98,200.67 63.16,200.29 63.71,199.91"/>
    </edge>
    <edge id=":764583679_2" function="internal">
        <lane id=":764583679_2_0" index="0" allow="bicycle" speed="5.56" length="4.72" width="1.50" shape="58.99,199.81 63.71,199.91"/>
    </edge>
    <edge id=":764583679_3" function="internal">
        <lane id=":764583679_3_0" index="0" allow="bicycle" speed="2.50" length="2.19" width="1.50" shape="58.99,199.81 59.54,200.21 59.71,200.60 59.50,200.96 58.92,201.31"/>
    </edge>
    <edge id=":764583684_0" function="internal">
        <lane id=":764583684_0_0" index="0" allow="bicycle" speed="2.50" length="2.19" width="1.50" shape="68.03,-0.04 68.43,-0.58 68.82,-0.75 69.18,-0.54 69.53,0.04"/>
    </edge>
    <edge id=":8909278309_0" function="internal">
        <lane id=":8909278309_0_0" index="0" disallow="tram rail_urban rail rail_electric rail_fast ship container cable_car subway aircraft wheelchair scooter drone" speed="10.77" length="22.94" shape="89.95,215.42 84.03,213.99 79.64,211.01 76.79,206.49 75.47,200.43"/>
    </edge>
    <edge id=":8909278309_1" function="internal">
        <lane id=":8909278309_1_0" index="0" disallow="tram rail_urban rail rail_electric rail_fast ship container cable_car subway aircraft wheelchair scooter drone" speed="8.68" length="14.41" shape="78.66,200.17 79.53,203.13 81.61,205.40 84.89,207.00 89.39,207.92"/>
    </edge>
    <edge id=":8909278309_2" function="internal">
        <lane id=":8909278309_2_0" index="0" disallow="tram rail_urban rail rail_electric rail_fast ship container cable_car subway aircraft wheelchair scooter drone" speed="20.83" length="13.16" shape="78.66,200.17 78.88,203.39 79.21,206.00 80.01,208.69 81.67,212.15"/>
        <lane id=":8909278309_2_1" index="1" disallow="tram rail_urban rail rail_electric rail_fast ship container cable_car subway aircraft wheelchair scooter drone" speed="20.83" length="13.16" shape="78.66,200.17 78.41,203.55 77.70,206.57 77.52,209.77 78.86,213.68"/>
    </edge>
    <edge id=":8909278309_4" function="internal">
        <lane id=":8909278309_4_0" index="0" disallow="tram rail_urban rail rail_electric rail_fast ship container cable_car subway aircraft wheelchair scooter drone" speed="3.65" length="4.67" shape="78.66,200.17 77.96,201.43 77.19,201.90 76.36,201.56 75.47,200.43"/>
    </edge>
    <edge id=":8909278309_5" function="internal">
        <lane id=":8909278309_5_0" index="0" disallow="tram rail_urban rail rail_electric rail_fast ship container cable_car subway aircraft wheelchair scooter drone" speed="6.11" length="9.06" shape="70.03,205.65 72.59,205.59 74.35,204.71 75.31,202.98 75.47,200.43"/>
    </edge>
    <edge id=":8909278309_6" function="internal">
        <lane id=":8909278309_6_0" index="0" disallow="tram rail_urban rail rail_electric rail_fast ship container cable_car subway aircraft wheelchair scooter drone" speed="13.89" length="19.51" shape="70.03,205.65 89.39,207.92"/>
        <lane id=":8909278309_6_1" index="1" disallow="tram rail_urban rail rail_electric rail_fast ship container cable_car subway aircraft wheelchair scooter drone" speed="13.89" length="19.51" shape="69.64,208.82 89.03,211.10"/>
    </edge>
    <edge id=":8909278309_8" function="internal">
        <lane id=":8909278309_8_0" index="0" disallow="tram rail_urban rail rail_electric rail_fast ship container cable_car subway aircraft wheelchair scooter drone" speed="9.52" length="10.80" shape="69.64,208.82 72.86,209.45 75.47,210.47 77.47,211.88 78.86,213.68"/>
    </edge>
    <edge id=":8909278309_9" function="internal">
        <lane id=":8909278309_9_0" index="0" disallow="tram rail_urban rail rail_electric rail_fast ship container cable_car subway aircraft wheelchair scooter drone" speed="13.89" length="12.70" shape="76.39,212.99 76.86,209.69 76.57,206.77 75.97,203.82 75.47,200.43"/>
    </edge>
    <edge id=":8909278309_10" function="internal">
        <lane id=":8909278309_10_0" index="0" disallow="tram rail_urban rail rail_electric rail_fast ship container cable_car subway aircraft wheelchair scooter drone" speed="8.25" length="1.50" shape="76.39,212.99 77.36,211.84"/>
    </edge>
    <edge id=":8909278309_11" function="internal">
        <lane id=":8909278309_11_0" index="0" disallow="tram rail_urban rail rail_electric rail_fast ship container cable_car subway aircraft wheelchair scooter drone" speed="8.25" length="11.88" shape="77.36,211.84 77.51,211.66 79.99,210.90 83.83,210.72 89.03,211.10"/>
    </edge>
    <edge id=":8909278311_0" function="internal">
        <lane id=":8909278311_0_0" index="0" disallow="tram rail_urban rail rail_electric rail_fast ship container cable_car subway aircraft wheelchair scooter drone" speed="13.89" length="9.14" shape="75.51,224.32 75.29,221.61 75.11,219.74 75.20,217.89 75.77,215.27"/>
    </edge>
    <edge id=":8909278311_1" function="internal">
        <lane id=":8909278311_1_0" index="0" disallow="tram rail_urban rail rail_electric rail_fast ship container cable_car subway aircraft wheelchair scooter drone" speed="13.89" length="1.71" shape="75.29,219.13 73.54,218.94"/>
        <lane id=":8909278311_1_1" index="1" disallow="tram rail_urban rail rail_electric rail_fast ship container cable_car subway aircraft wheelchair scooter drone" speed="13.89" length="1.71" shape="75.54,215.94 73.91,215.76"/>
    </edge>
    <edge id=":8909278312_0" function="internal">
        <lane id=":8909278312_0_0" index="0" disallow="tram rail_urban rail rail_electric rail_fast ship container cable_car subway aircraft wheelchair scooter drone" speed="13.89" length="5.89" shape="74.42,232.87 74.12,231.15 73.93,229.96 73.64,228.80 73.07,227.16"/>
    </edge>
    <edge id=":8920325959_0" function="internal">
        <lane id=":8920325959_0_0" index="0" disallow="tram rail_urban rail rail_electric rail_fast ship container cable_car subway aircraft wheelchair scooter drone" speed="22.22" length="5.83" shape="70.85,211.83 72.54,212.24 73.74,212.41 74.88,212.74 76.36,213.57"/>
    </edge>
    <edge id=":8920325959_1" function="internal">
        <lane id=":8920325959_1_0" index="0" disallow="tram rail_urban rail rail_electric rail_fast ship container cable_car subway aircraft wheelchair scooter drone" speed="13.89" length="1.96" shape="75.82,215.07 76.34,213.18"/>
    </edge>

    <edge id="-229688725" from="2382534148" to="2382534149" priority="3" type="highway.residential">
        <lane id="-229688725_0" index="0" disallow="tram rail_urban rail rail_electric rail_fast ship container cable_car subway aircraft wheelchair scooter drone" speed="13.89" length="19.25" shape="107.69,227.00 126.87,228.62"/>
    </edge>
    <edge id="-22973545#0" from="2382530613" to="2382534162" priority="12" type="highway.primary">
        <lane id="-22973545#0_0" index="0" disallow="tram rail_urban rail rail_electric rail_fast ship container cable_car subway aircraft wheelchair scooter drone" speed="13.89" length="0.35" shape="81.23,192.69 81.26,193.03"/>
        <lane id="-22973545#0_1" index="1" disallow="tram rail_urban rail rail_electric rail_fast ship container cable_car subway aircraft wheelchair scooter drone" speed="13.89" length="0.35" shape="78.04,192.98 78.08,193.33"/>
        <param key="ref" value="D 34"/>
    </edge>
    <edge id="-22973545#1" from="247637215" to="2382530613" priority="12" type="highway.primary" shape="72.90,136.73 74.37,172.28 76.44,192.99">
        <lane id="-22973545#1_0" index="0" disallow="tram rail_urban rail rail_electric rail_fast ship container cable_car subway aircraft wheelchair scooter drone" speed="13.89" length="27.98" shape="78.86,164.59 79.16,171.94 81.20,192.37"/>
        <lane id="-22973545#1_1" index="1" disallow="tram rail_urban rail rail_electric rail_fast ship container cable_car subway aircraft wheelchair scooter drone" speed="13.89" length="27.98" shape="75.66,164.73 75.97,172.16 78.01,192.69"/>
        <param key="ref" value="D 34"/>
    </edge>
    <edge id="-261094784#0" from="764583679" to="2667103054" priority="1" type="highway.cycleway" shape="61.63,200.69 58.43,200.53 52.07,197.73">
        <lane id="-261094784#0_0" index="0" allow="bicycle" speed="5.56" length="1.96" width="1.50" shape="58.92,201.31 58.26,201.27 57.07,200.75"/>
    </edge>
    <edge id="-261094784#1" from="2667103051" to="764583679" priority="1" type="highway.cycleway">
        <lane id="-261094784#1_0" index="0" allow="bicycle" speed="5.56" length="0.20" width="1.50" shape="63.94,201.41 63.74,201.41"/>
    </edge>
    <edge id="-261094784#2" from="2667102968" to="2667103051" priority="1" type="highway.cycleway" shape="70.20,196.19 68.95,197.75 66.73,200.15 66.13,200.62">
        <lane id="-261094784#2_0" index="0" allow="bicycle" speed="5.56" length="2.23" width="1.50" shape="69.55,198.20 68.04,199.83"/>
    </edge>
    <edge id="-261094784#3" from="764583684" to="2667102968" priority="1" type="highway.cycleway" shape="68.78,0.00 66.49,42.33 65.85,63.44 65.80,101.42 66.79,127.22 67.89,144.23 70.08,178.60 70.47,192.14 70.20,196.19">
        <lane id="-261094784#3_0" index="0" allow="bicycle" speed="5.56" length="193.84" width="1.50" shape="69.53,0.04 67.24,42.36 66.60,63.45 66.55,101.41 67.54,127.18 68.64,144.18 70.83,178.57 71.22,192.16 71.12,193.68"/>
    </edge>
    <edge id="-963150439" from="2382534162" to="8909278309" priority="12" type="highway.primary">
        <lane id="-963150439_0" index="0" disallow="tram rail_urban rail rail_electric rail_fast ship container cable_car subway aircraft wheelchair scooter drone" speed="13.89" length="1.13" shape="78.57,199.04 78.66,200.17"/>
        <param key="ref" value="D 34"/>
    </edge>
    <edge id="1160199981#0" from="2382530621" to="2382530654" priority="12" type="highway.primary" spreadType="center" shape="122.99,221.83 113.48,220.95 99.06,219.61">
        <lane id="1160199981#0_0" index="0" disallow="tram rail_urban rail rail_electric rail_fast ship container cable_car subway aircraft wheelchair scooter drone" speed="13.89" length="23.82" shape="122.84,223.43 113.33,222.54 99.06,221.22"/>
        <lane id="1160199981#0_1" index="1" disallow="tram rail_urban rail rail_electric rail_fast ship container cable_car subway aircraft wheelchair scooter drone" speed="13.89" length="23.82" shape="123.00,220.23 113.62,219.36 99.36,218.03"/>
        <param key="ref" value="D 934"/>
    </edge>
    <edge id="1160199981#1" from="2382530654" to="266643638" priority="12" type="highway.primary" spreadType="center">
        <lane id="1160199981#1_0" index="0" disallow="tram rail_urban rail rail_electric rail_fast ship container cable_car subway aircraft wheelchair scooter drone" speed="13.89" length="7.61" shape="98.76,221.19 91.18,220.49"/>
        <lane id="1160199981#1_1" index="1" disallow="tram rail_urban rail rail_electric rail_fast ship container cable_car subway aircraft wheelchair scooter drone" speed="13.89" length="7.61" shape="99.06,218.01 91.48,217.31"/>
        <param key="ref" value="D 934"/>
    </edge>
    <edge id="221409600" from="764583679" to="1433270652" priority="1" type="highway.footway" spreadType="center" shape="61.63,200.69 60.91,189.08 60.64,187.67 53.51,149.81 43.64,97.43 43.02,94.18">
        <lane id="221409600_0" index="0" allow="pedestrian" speed="2.78" length="105.08" width="2.00" shape="61.44,197.58 60.91,189.08 60.64,187.67 53.51,149.81 43.64,97.43 43.02,94.18"/>
    </edge>
    <edge id="229688365#0" from="2382530621" to="2382530661" priority="7" type="highway.primary_link" spreadType="center" shape="122.99,221.83 111.03,217.52 92.95,215.72">