<?xml version="1.0" encoding="UTF-8"?>

<!-- generated on 2024-09-03 01:36:50 by Eclipse SUMO netconvert Version 1.20.0
<configuration xmlns:xsi="http://www.w3.org/2001/XMLSchema-instance" xsi:noNamespaceSchemaLocation="http://sumo.dlr.de/xsd/netconvertConfiguration.xsd">

    <input>
        <osm-files value="train_files/roundabout/easy/osm_files/map(23).osm"/>
    </input>

    <output>
        <output-file value="train_files/roundabout/easy/outputs/map(23)_dict/map(23)/map(23).net.xml"/>
    </output>

    <projection>
        <proj.utm value="true"/>
    </projection>

    <building_defaults>
        <default.junctions.keep-clear value="false"/>
    </building_defaults>

</configuration>
-->

<net version="1.20" junctionCornerDetail="5" limitTurnSpeed="5.50" xmlns:xsi="http://www.w3.org/2001/XMLSchema-instance" xsi:noNamespaceSchemaLocation="http://sumo.dlr.de/xsd/net_file.xsd">

    <location netOffset="-465198.34,-5392032.80" convBoundary="0.00,0.00,838.35,731.73" origBoundary="2.527150,48.680378,2.538585,48.686952" projParameter="+proj=utm +zone=31 +ellps=WGS84 +datum=WGS84 +units=m +no_defs"/>

    <type id="highway.cycleway" priority="1" numLanes="1" speed="5.56" allow="bicycle" oneway="0" width="2.00"/>
    <type id="highway.footway" priority="1" numLanes="1" speed="2.78" allow="pedestrian" oneway="1" width="2.00"/>
    <type id="highway.path" priority="1" numLanes="1" speed="5.56" allow="pedestrian bicycle" oneway="0" width="2.00"/>
    <type id="highway.primary" priority="12" numLanes="2" speed="27.78" disallow="tram rail_urban rail rail_electric rail_fast ship container cable_car subway aircraft wheelchair scooter drone" oneway="0"/>
    <type id="highway.primary_link" priority="7" numLanes="1" speed="22.22" disallow="tram rail_urban rail rail_electric rail_fast ship container cable_car subway aircraft wheelchair scooter drone" oneway="0"/>
    <type id="highway.secondary" priority="11" numLanes="1" speed="27.78" disallow="tram rail_urban rail rail_electric rail_fast ship container cable_car subway aircraft wheelchair scooter drone" oneway="0"/>
    <type id="highway.service" priority="1" numLanes="1" speed="5.56" allow="pedestrian delivery bicycle" oneway="0"/>
    <type id="highway.unclassified" priority="4" numLanes="1" speed="13.89" disallow="tram rail_urban rail rail_electric rail_fast ship container cable_car subway aircraft wheelchair scooter drone" oneway="0"/>

    <edge id=":1345596422_0" function="internal">
        <lane id=":1345596422_0_0" index="0" allow="pedestrian delivery bicycle" speed="5.56" length="5.56" shape="539.33,308.62 538.45,307.72 537.32,307.22 535.93,307.13 534.28,307.44"/>
    </edge>
    <edge id=":1345596422_1" function="internal">
        <lane id=":1345596422_1_0" index="0" allow="pedestrian delivery bicycle" speed="5.56" length="9.04" shape="539.33,308.62 537.85,306.39 536.96,304.77 536.30,303.06 535.49,300.50"/>
    </edge>
    <edge id=":1345596422_2" function="internal">
        <lane id=":1345596422_2_0" index="0" allow="pedestrian delivery bicycle" speed="5.02" length="5.03" shape="533.40,304.36 534.66,303.79 535.43,302.96 535.71,301.86 535.49,300.50"/>
    </edge>
    <edge id=":1345596422_3" function="internal">
        <lane id=":1345596422_3_0" index="0" allow="pedestrian delivery bicycle" speed="3.65" length="4.67" shape="533.40,304.36 534.78,304.80 535.38,305.46 535.22,306.34 534.28,307.44"/>
    </edge>
    <edge id=":1345596508_0" function="internal">
        <lane id=":1345596508_0_0" index="0" disallow="tram rail_urban rail rail_electric rail_fast ship container cable_car subway aircraft wheelchair scooter drone" speed="11.11" length="7.42" shape="361.64,275.98 362.90,277.72 364.09,278.64 365.42,279.46 367.07,280.92"/>
    </edge>
    <edge id=":1345596508_1" function="internal">
        <lane id=":1345596508_1_0" index="0" disallow="tram rail_urban rail rail_electric rail_fast ship container cable_car subway aircraft wheelchair scooter drone" speed="8.33" length="7.37" shape="362.37,275.41 367.07,280.92"/>
        <lane id=":1345596508_1_1" index="1" disallow="tram rail_urban rail rail_electric rail_fast ship container cable_car subway aircraft wheelchair scooter drone" speed="8.33" length="7.37" shape="359.85,277.38 364.72,283.09"/>
    </edge>
    <edge id=":1345596558_0" function="internal">
        <lane id=":1345596558_0_0" index="0" allow="pedestrian bicycle" speed="4.17" length="4.22" width="2.00" shape="378.75,287.87 377.87,289.05 377.52,290.03 377.69,290.81 378.39,291.38"/>
    </edge>
    <edge id=":1345596558_1" function="internal">
        <lane id=":1345596558_1_0" index="0" allow="pedestrian bicycle" speed="5.56" length="10.17" width="2.00" shape="378.75,287.87 376.76,290.11 375.34,291.64 373.86,293.11 371.68,295.17"/>
    </edge>
    <edge id=":1345596558_2" function="internal">
        <lane id=":1345596558_2_0" index="0" allow="pedestrian bicycle" speed="2.89" length="2.92" width="2.00" shape="378.75,287.87 377.88,288.10 377.34,287.95 377.13,287.43 377.26,286.54"/>
    </edge>
    <edge id=":1345596558_3" function="internal">
        <lane id=":1345596558_3_0" index="0" allow="pedestrian bicycle" speed="4.90" length="5.01" width="2.00" shape="373.00,287.34 373.94,288.02 374.97,288.12 376.07,287.62 377.26,286.54"/>
    </edge>
    <edge id=":1345596558_4" function="internal">
        <lane id=":1345596558_4_0" index="0" disallow="tram rail_urban rail rail_electric rail_fast ship container cable_car subway aircraft wheelchair scooter drone" speed="8.33" length="7.45" shape="373.00,287.34 374.38,288.81 375.42,289.74 376.59,290.48 378.39,291.38"/>
        <lane id=":1345596558_4_1" index="1" disallow="tram rail_urban rail rail_electric rail_fast ship container cable_car subway aircraft wheelchair scooter drone" speed="8.33" length="7.45" shape="370.65,289.51 372.30,291.25 373.53,292.35 374.93,293.23 377.08,294.30"/>
    </edge>
    <edge id=":1345596558_6" function="internal">
        <lane id=":1345596558_6_0" index="0" allow="pedestrian bicycle" speed="5.62" length="6.45" width="2.00" shape="370.65,289.51 371.95,291.20 372.55,292.70 372.46,294.02 371.68,295.17"/>
    </edge>
    <edge id=":1345596558_7" function="internal">
        <lane id=":1345596558_7_0" index="0" allow="pedestrian bicycle" speed="5.56" length="9.98" width="2.00" shape="370.31,293.70 372.47,291.67 373.91,290.24 375.29,288.75 377.26,286.54"/>
    </edge>
    <edge id=":1345596558_8" function="internal">
        <lane id=":1345596558_8_0" index="0" allow="pedestrian bicycle" speed="6.68" length="7.15" width="2.00" shape="370.31,293.70 371.44,293.08 372.95,292.97 374.83,293.37 377.08,294.30"/>
    </edge>
    <edge id=":1345596558_9" function="internal">
        <lane id=":1345596558_9_0" index="0" allow="pedestrian bicycle" speed="2.89" length="2.92" width="2.00" shape="370.31,293.70 371.20,293.56 371.73,293.75 371.88,294.29 371.68,295.17"/>
    </edge>
    <edge id=":1345596656_0" function="internal">
        <lane id=":1345596656_0_0" index="0" disallow="tram rail_urban rail rail_electric rail_fast ship container cable_car subway aircraft wheelchair scooter drone" speed="8.71" length="5.11" shape="408.31,291.85 408.56,293.35 408.82,294.39 409.35,295.28 410.38,296.35"/>
    </edge>
    <edge id=":1345596656_1" function="internal">
        <lane id=":1345596656_1_0" index="0" disallow="tram rail_urban rail rail_electric rail_fast ship container cable_car subway aircraft wheelchair scooter drone" speed="13.89" length="6.12" shape="404.74,293.26 406.48,294.08 407.73,294.56 408.89,295.17 410.38,296.35"/>
        <lane id=":1345596656_1_1" index="1" disallow="tram rail_urban rail rail_electric rail_fast ship container cable_car subway aircraft wheelchair scooter drone" speed="12.03" length="6.12" shape="403.20,296.12 404.84,296.56 405.95,296.97 406.94,297.61 408.23,298.71"/>
    </edge>
    <edge id=":1345596684_0" function="internal">
        <lane id=":1345596684_0_0" index="0" allow="pedestrian delivery bicycle" speed="4.80" length="5.37" shape="544.97,323.14 546.34,322.45 547.03,321.53 547.04,320.38 546.37,319.01"/>
    </edge>
    <edge id=":1345596684_1" function="internal">
        <lane id=":1345596684_1_0" index="0" disallow="tram rail_urban rail rail_electric rail_fast ship container cable_car subway aircraft wheelchair scooter drone" speed="8.33" length="6.30" shape="544.97,323.14 550.96,321.18"/>
    </edge>
    <edge id=":1345635310_0" function="internal">
        <lane id=":1345635310_0_0" index="0" allow="bus bicycle" speed="3.65" length="4.67" shape="415.97,115.36 417.35,115.78 417.96,116.43 417.81,117.32 416.89,118.43"/>
    </edge>
    <edge id=":1345647441_0" function="internal">
        <lane id=":1345647441_0_0" index="0" disallow="tram rail_urban rail rail_electric rail_fast ship container cable_car subway aircraft wheelchair scooter drone" speed="13.89" length="0.10" shape="295.02,217.44 295.08,217.52"/>
        <lane id=":1345647441_0_1" index="1" disallow="tram rail_urban rail rail_electric rail_fast ship container cable_car subway aircraft wheelchair scooter drone" speed="13.89" length="0.10" shape="297.73,215.73 297.67,215.65"/>
    </edge>
    <edge id=":1545040754_0" function="internal">
        <lane id=":1545040754_0_0" index="0" allow="bus bicycle" speed="9.72" length="12.44" shape="409.69,260.48 409.84,264.19 408.88,266.94 407.89,269.48 407.98,272.57"/>
    </edge>
    <edge id=":1545040754_1" function="internal">
        <lane id=":1545040754_1_0" index="0" allow="bus bicycle" speed="3.65" length="4.67" shape="406.58,261.23 406.08,262.58 405.40,263.16 404.53,262.96 403.47,261.98"/>
    </edge>
    <edge id=":1545040754_2" function="internal">
        <lane id=":1545040754_2_0" index="0" allow="bus bicycle" speed="9.72" length="10.80" shape="402.78,272.57 403.61,269.56 404.06,267.29 404.04,265.01 403.47,261.98"/>
    </edge>
    <edge id=":1545040755_0" function="internal">
        <lane id=":1545040755_0_0" index="0" allow="pedestrian delivery bicycle" speed="4.79" length="5.38" shape="412.23,277.15 410.74,276.78 409.62,277.03 408.87,277.91 408.50,279.41"/>
    </edge>
    <edge id=":1545040755_1" function="internal">
        <lane id=":1545040755_1_0" index="0" disallow="tram rail_urban rail rail_electric rail_fast ship container cable_car subway aircraft wheelchair scooter drone" speed="13.89" length="5.89" shape="408.26,273.58 408.66,275.27 408.78,276.46 408.70,277.67 408.50,279.41"/>
    </edge>
    <edge id=":1545040772_0" function="internal">
        <lane id=":1545040772_0_0" index="0" disallow="tram rail_urban rail rail_electric rail_fast ship container cable_car subway aircraft wheelchair scooter drone" speed="13.89" length="5.69" shape="398.28,285.21 399.29,283.87 399.87,282.87 400.26,281.77 400.71,280.15"/>
    </edge>
    <edge id=":1545040774_0" function="internal">
        <lane id=":1545040774_0_0" index="0" disallow="tram rail_urban rail rail_electric rail_fast ship container cable_car subway aircraft wheelchair scooter drone" speed="13.89" length="7.07" shape="407.98,284.63 407.79,286.72 407.77,288.16 407.92,289.59 408.28,291.65"/>
    </edge>
    <edge id=":1545106148_0" function="internal">
        <lane id=":1545106148_0_0" index="0" disallow="tram rail_urban rail rail_electric rail_fast ship container cable_car subway aircraft wheelchair scooter drone" speed="13.89" length="7.30" shape="301.99,232.22 300.71,230.37 300.52,228.69 300.48,226.91 299.62,224.71"/>
        <lane id=":1545106148_0_1" index="1" disallow="tram rail_urban rail rail_electric rail_fast ship container cable_car subway aircraft wheelchair scooter drone" speed="13.89" length="7.30" shape="303.42,229.17 302.53,227.67 302.65,226.27 302.88,224.78 302.33,223.00"/>
    </edge>
    <edge id=":1545106148_2" function="internal">
        <lane id=":1545106148_2_0" index="0" disallow="tram rail_urban rail rail_electric rail_fast ship container cable_car subway aircraft wheelchair scooter drone" speed="4.16" length="5.96" shape="303.42,229.17 302.47,227.59 302.45,226.45 303.34,225.75 305.16,225.48"/>
    </edge>
    <edge id=":1545106190_0" function="internal">
        <lane id=":1545106190_0_0" index="0" allow="pedestrian bicycle" speed="2.89" length="2.92" width="2.00" shape="294.59,230.79 294.51,229.89 294.74,229.39 295.29,229.27 296.15,229.54"/>
    </edge>
    <edge id=":1545106210_0" function="internal">
        <lane id=":1545106210_0_0" index="0" disallow="tram rail_urban rail rail_electric rail_fast ship container cable_car subway aircraft wheelchair scooter drone" speed="27.78" length="5.07" shape="430.87,319.82 435.14,322.55"/>
    </edge>
    <edge id=":192686741_0" function="internal">
        <lane id=":192686741_0_0" index="0" disallow="tram rail_urban rail rail_electric rail_fast ship container cable_car subway aircraft wheelchair scooter drone" speed="9.79" length="5.97" shape="391.83,291.51 393.45,290.90 394.42,290.19 395.21,289.21 396.27,287.78"/>
    </edge>
    <edge id=":192686741_1" function="internal">
        <lane id=":192686741_1_0" index="0" disallow="tram rail_urban rail rail_electric rail_fast ship container cable_car subway aircraft wheelchair scooter drone" speed="13.89" length="5.87" shape="391.83,291.51 393.63,291.14 394.91,291.20 396.20,291.42 398.08,291.57"/>
        <lane id=":192686741_1_1" index="1" disallow="tram rail_urban rail rail_electric rail_fast ship container cable_car subway aircraft wheelchair scooter drone" speed="10.67" length="5.87" shape="392.73,294.58 394.27,294.21 395.38,294.16 396.49,294.38 398.04,294.80"/>
    </edge>
    <edge id=":192686744_0" function="internal">
        <lane id=":192686744_0_0" index="0" disallow="tram rail_urban rail rail_electric rail_fast ship container cable_car subway aircraft wheelchair scooter drone" speed="9.29" length="5.95" shape="420.75,311.90 421.45,313.46 422.23,314.37 423.29,315.07 424.81,315.97"/>
    </edge>
    <edge id=":192686744_1" function="internal">
        <lane id=":192686744_1_0" index="0" disallow="tram rail_urban rail rail_electric rail_fast ship container cable_car subway aircraft wheelchair scooter drone" speed="13.89" length="5.84" shape="420.75,311.90 421.23,313.67 421.29,314.94 421.18,316.24 421.18,318.11"/>
        <lane id=":192686744_1_1" index="1" disallow="tram rail_urban rail rail_electric rail_fast ship container cable_car subway aircraft wheelchair scooter drone" speed="13.89" length="5.84" shape="417.73,312.98 418.13,314.49 418.14,315.58 418.01,316.70 417.99,318.30"/>
    </edge>
    <edge id=":192686746_0" function="internal">
        <lane id=":192686746_0_0" index="0" disallow="tram rail_urban rail rail_electric rail_fast ship container cable_car subway aircraft wheelchair scooter drone" speed="9.46" length="7.67" shape="466.20,342.46 468.14,343.42 469.67,343.54 471.30,343.17 473.53,342.62"/>
    </edge>
    <edge id=":192686746_1" function="internal">
        <lane id=":192686746_1_0" index="0" allow="bus bicycle" speed="27.78" length="7.78" shape="466.20,342.46 472.72,346.71"/>
    </edge>
    <edge id=":192694485_0" function="internal">
        <lane id=":192694485_0_0" index="0" allow="bus bicycle" speed="27.78" length="5.45" shape="422.88,342.93 421.42,342.23 420.40,341.80 419.36,341.44 417.81,340.96"/>
    </edge>
    <edge id=":192697349_0" function="internal">
        <lane id=":192697349_0_0" index="0" disallow="tram rail_urban rail rail_electric rail_fast ship container cable_car subway aircraft wheelchair scooter drone" speed="10.88" length="7.91" shape="398.41,344.01 396.14,344.47 394.62,345.06 393.32,346.04 391.69,347.70"/>
    </edge>
    <edge id=":192697349_1" function="internal">
        <lane id=":192697349_1_0" index="0" disallow="tram rail_urban rail rail_electric rail_fast ship container cable_car subway aircraft wheelchair scooter drone" speed="13.89" length="7.85" shape="398.41,344.01 395.99,344.32 394.31,344.30 392.63,344.08 390.19,343.78"/>
        <lane id=":192697349_1_1" index="1" disallow="tram rail_urban rail rail_electric rail_fast ship container cable_car subway aircraft wheelchair scooter drone" speed="13.89" length="7.85" shape="397.88,340.86 395.70,341.13 394.20,341.09 392.69,340.87 390.49,340.60"/>
    </edge>
    <edge id=":192697821_0" function="internal">
        <lane id=":192697821_0_0" index="0" allow="bus bicycle" speed="12.28" length="11.30" shape="417.41,340.84 414.40,340.05 412.05,339.89 409.66,340.39 406.49,341.60"/>
    </edge>
    <edge id=":192697821_1" function="internal">
        <lane id=":192697821_1_0" index="0" disallow="tram rail_urban rail rail_electric rail_fast ship container cable_car subway aircraft wheelchair scooter drone" speed="13.89" length="11.26" shape="415.37,334.43 413.39,337.25 411.73,338.98 409.66,340.23 406.49,341.60"/>
        <lane id=":192697821_1_1" index="1" disallow="tram rail_urban rail rail_electric rail_fast ship container cable_car subway aircraft wheelchair scooter drone" speed="13.53" length="11.26" shape="413.28,331.79 411.48,334.43 410.01,336.11 408.17,337.34 405.27,338.64"/>
    </edge>
    <edge id=":207208906_0" function="internal">
        <lane id=":207208906_0_0" index="0" disallow="tram rail_urban rail rail_electric rail_fast ship container cable_car subway aircraft wheelchair scooter drone" speed="9.78" length="9.00" shape="378.57,291.47 380.64,292.59 382.15,293.37 383.71,293.64 385.91,293.24"/>
        <lane id=":207208906_0_1" index="1" disallow="tram rail_urban rail rail_electric rail_fast ship container cable_car subway aircraft wheelchair scooter drone" speed="11.05" length="9.00" shape="377.26,294.39 379.94,295.77 381.92,296.66 383.96,296.88 386.80,296.31"/>
    </edge>
    <edge id=":207208906_2" function="internal">
        <lane id=":207208906_2_0" index="0" disallow="tram rail_urban rail rail_electric rail_fast ship container cable_car subway aircraft wheelchair scooter drone" speed="13.89" length="9.84" shape="377.00,298.36 379.47,296.51 381.18,295.23 383.02,294.23 385.91,293.24"/>
        <lane id=":207208906_2_1" index="1" disallow="tram rail_urban rail rail_electric rail_fast ship container cable_car subway aircraft wheelchair scooter drone" speed="13.89" length="9.84" shape="378.84,300.98 381.05,299.31 382.58,298.13 384.22,297.21 386.80,296.31"/>
    </edge>
    <edge id=":207208942_0" function="internal">
        <lane id=":207208942_0_0" index="0" disallow="tram rail_urban rail rail_electric rail_fast ship container cable_car subway aircraft wheelchair scooter drone" speed="11.11" length="18.55" shape="331.59,237.37 343.46,251.67"/>
        <lane id=":207208942_0_1" index="1" disallow="tram rail_urban rail rail_electric rail_fast ship container cable_car subway aircraft wheelchair scooter drone" speed="11.11" length="18.55" shape="329.13,239.41 340.95,253.66"/>
    </edge>
    <edge id=":207208942_2" function="internal">
        <lane id=":207208942_2_0" index="0" disallow="tram rail_urban rail rail_electric rail_fast ship container cable_car subway aircraft wheelchair scooter drone" speed="15.28" length="18.31" shape="326.86,242.09 329.73,244.42 333.08,246.55 336.84,249.35 340.95,253.66"/>
    </edge>
    <edge id=":207209256_0" function="internal">
        <lane id=":207209256_0_0" index="0" disallow="tram rail_urban rail rail_electric rail_fast ship container cable_car subway aircraft wheelchair scooter drone" speed="13.89" length="11.99" shape="369.17,323.97 367.94,320.70 366.58,318.70 364.85,316.88 362.53,314.16"/>
        <lane id=":207209256_0_1" index="1" disallow="tram rail_urban rail rail_electric rail_fast ship container cable_car subway aircraft wheelchair scooter drone" speed="13.89" length="12.59" shape="369.17,323.97 368.33,320.31 367.89,317.71 367.06,315.31 365.08,312.23"/>
    </edge>
    <edge id=":207209256_2" function="internal">
        <lane id=":207209256_2_0" index="0" disallow="tram rail_urban rail rail_electric rail_fast ship container cable_car subway aircraft wheelchair scooter drone" speed="13.89" length="12.78" shape="369.17,323.97 368.16,320.19 367.84,317.48 368.25,314.79 369.42,311.06"/>
        <lane id=":207209256_2_1" index="1" disallow="tram rail_urban rail rail_electric rail_fast ship container cable_car subway aircraft wheelchair scooter drone" speed="13.89" length="12.78" shape="372.25,323.07 371.36,319.58 371.17,317.07 371.65,314.58 372.77,311.13"/>
    </edge>
    <edge id=":2287738398_0" function="internal">
        <lane id=":2287738398_0_0" index="0" allow="pedestrian bicycle" speed="2.89" length="2.92" width="2.00" shape="424.98,101.27 425.88,101.30 426.35,101.60 426.40,102.16 426.02,102.98"/>
    </edge>
    <edge id=":2287738446_0" function="internal">
        <lane id=":2287738446_0_0" index="0" allow="pedestrian bicycle" speed="5.34" length="2.30" width="2.00" shape="394.94,268.45 394.93,269.13 394.84,269.59 394.61,270.01 394.18,270.53"/>
    </edge>
    <edge id=":2287738446_1" function="internal">
        <lane id=":2287738446_1_0" index="0" allow="pedestrian bicycle" speed="5.56" length="0.77" width="2.00" shape="392.68,269.20 392.83,269.02 392.90,268.89 392.93,268.73 392.94,268.50"/>
    </edge>
    <edge id=":2287738457_0" function="internal">
        <lane id=":2287738457_0_0" index="0" allow="pedestrian bicycle" speed="4.85" length="4.52" width="2.00" shape="359.28,309.88 358.46,309.13 357.53,308.86 356.47,309.06 355.30,309.75"/>
    </edge>
    <edge id=":2287738457_1" function="internal">
        <lane id=":2287738457_1_0" index="0" disallow="tram rail_urban rail rail_electric rail_fast ship container cable_car subway aircraft wheelchair scooter drone" speed="13.89" length="7.44" shape="359.28,309.88 354.86,303.81"/>
        <lane id=":2287738457_1_1" index="1" disallow="tram rail_urban rail rail_electric rail_fast ship container cable_car subway aircraft wheelchair scooter drone" speed="13.89" length="7.44" shape="361.83,307.94 357.49,301.97"/>
    </edge>
    <edge id=":2287738457_3" function="internal">
        <lane id=":2287738457_3_0" index="0" allow="pedestrian bicycle" speed="5.88" length="6.61" width="2.00" shape="361.83,307.94 360.75,306.19 360.33,304.61 360.55,303.21 361.44,301.99"/>
    </edge>
    <edge id=":2287738457_4" function="internal">
        <lane id=":2287738457_4_0" index="0" allow="pedestrian bicycle" speed="5.56" length="9.80" width="2.00" shape="362.80,303.46 360.67,305.44 359.18,306.76 357.62,308.00 355.30,309.75"/>
    </edge>
    <edge id=":2287738457_5" function="internal">
        <lane id=":2287738457_5_0" index="0" allow="pedestrian bicycle" speed="5.22" length="6.46" width="2.00" shape="362.80,303.46 361.50,304.27 360.18,304.29 358.84,303.53 357.49,301.97"/>
    </edge>
    <edge id=":2287738457_6" function="internal">
        <lane id=":2287738457_6_0" index="0" allow="pedestrian bicycle" speed="2.89" length="2.92" width="2.00" shape="362.80,303.46 361.91,303.60 361.39,303.41 361.23,302.87 361.44,301.99"/>
    </edge>
    <edge id=":2287738457_7" function="internal">
        <lane id=":2287738457_7_0" index="0" allow="pedestrian bicycle" speed="4.92" length="4.99" width="2.00" shape="354.10,308.14 355.08,307.17 355.54,306.13 355.47,305.01 354.86,303.81"/>
    </edge>
    <edge id=":2287738457_8" function="internal">
        <lane id=":2287738457_8_0" index="0" allow="pedestrian bicycle" speed="5.56" length="9.58" width="2.00" shape="354.10,308.14 356.37,306.44 357.90,305.22 359.35,303.93 361.44,301.99"/>
    </edge>
    <edge id=":2287738457_9" function="internal">
        <lane id=":2287738457_9_0" index="0" allow="pedestrian bicycle" speed="2.89" length="2.92" width="2.00" shape="354.10,308.14 355.00,308.10 355.50,308.35 355.60,308.90 355.30,309.75"/>
    </edge>
    <edge id=":2287738461_0" function="internal">
        <lane id=":2287738461_0_0" index="0" allow="pedestrian bicycle" speed="5.56" length="6.96" width="2.00" shape="351.63,315.27 347.90,309.39"/>
    </edge>
    <edge id=":2287738461_1" function="internal">
        <lane id=":2287738461_1_0" index="0" allow="pedestrian bicycle" speed="5.56" length="7.27" width="2.00" shape="351.63,315.27 350.88,313.52 350.86,311.88 351.58,310.35 353.04,308.93"/>
    </edge>
    <edge id=":2287738461_2" function="internal">
        <lane id=":2287738461_2_0" index="0" allow="pedestrian bicycle" speed="2.89" length="2.92" width="2.00" shape="351.63,315.27 351.66,314.37 351.95,313.90 352.51,313.84 353.33,314.22"/>
    </edge>
    <edge id=":2287738461_3" function="internal">
        <lane id=":2287738461_3_0" index="0" allow="pedestrian bicycle" speed="4.67" length="4.24" width="2.00" shape="354.23,310.54 353.36,311.38 352.92,312.27 352.91,313.22 353.33,314.22"/>
    </edge>
    <edge id=":2287738461_4" function="internal">
        <lane id=":2287738461_4_0" index="0" allow="pedestrian bicycle" speed="5.56" length="7.45" width="2.00" shape="354.23,310.54 352.42,311.52 350.76,311.66 349.25,310.95 347.90,309.39"/>
    </edge>
    <edge id=":2287738461_5" function="internal">
        <lane id=":2287738461_5_0" index="0" allow="pedestrian bicycle" speed="2.89" length="2.92" width="2.00" shape="354.23,310.54 353.33,310.59 352.83,310.33 352.73,309.78 353.04,308.93"/>
    </edge>
    <edge id=":2287738461_6" function="internal">
        <lane id=":2287738461_6_0" index="0" allow="pedestrian bicycle" speed="4.36" length="4.07" width="2.00" shape="349.58,308.31 350.32,309.16 351.14,309.55 352.05,309.47 353.04,308.93"/>
    </edge>
    <edge id=":2287738461_7" function="internal">
        <lane id=":2287738461_7_0" index="0" allow="pedestrian bicycle" speed="5.56" length="7.00" width="2.00" shape="349.58,308.31 353.33,314.22"/>
    </edge>
    <edge id=":2287738461_8" function="internal">
        <lane id=":2287738461_8_0" index="0" allow="pedestrian bicycle" speed="2.89" length="2.92" width="2.00" shape="349.58,308.31 349.57,309.21 349.28,309.69 348.73,309.75 347.90,309.39"/>
    </edge>
    <edge id=":2287738473_0" function="internal">
        <lane id=":2287738473_0_0" index="0" allow="pedestrian bicycle" speed="5.23" length="5.49" width="2.00" shape="336.90,388.95 336.37,388.04 336.39,386.92 336.95,385.61 338.06,384.09"/>
    </edge>
    <edge id=":2287738473_1" function="internal">
        <lane id=":2287738473_1_0" index="0" allow="pedestrian bicycle" speed="2.89" length="1.46" width="2.00" shape="336.90,388.95 336.73,388.07 336.91,387.54"/>
    </edge>
    <edge id=":2287738473_4" function="internal">
        <lane id=":2287738473_4_0" index="0" allow="pedestrian bicycle" speed="2.89" length="1.46" width="2.00" shape="336.91,387.54 337.44,387.37 338.32,387.55"/>
    </edge>
    <edge id=":2287738473_2" function="internal">
        <lane id=":2287738473_2_0" index="0" allow="pedestrian bicycle" speed="3.89" length="2.76" width="2.00" shape="339.58,385.39 339.01,385.95 338.44,386.49 338.13,387.02 338.32,387.55"/>
    </edge>
    <edge id=":2287738473_3" function="internal">
        <lane id=":2287738473_3_0" index="0" allow="pedestrian bicycle" speed="2.89" length="0.80" width="2.00" shape="339.58,385.39 338.82,385.60"/>
    </edge>
    <edge id=":2287738473_5" function="internal">
        <lane id=":2287738473_5_0" index="0" allow="pedestrian bicycle" speed="2.89" length="2.13" width="2.00" shape="338.82,385.60 338.71,385.63 338.17,385.50 337.95,384.98 338.06,384.09"/>
    </edge>
    <edge id=":2287738475_0" function="internal">
        <lane id=":2287738475_0_0" index="0" allow="pedestrian bicycle" speed="4.10" length="3.40" width="2.00" shape="345.21,397.48 344.58,397.07 343.88,397.04 343.11,397.38 342.26,398.10"/>
    </edge>
    <edge id=":2287738475_1" function="internal">
        <lane id=":2287738475_1_0" index="0" allow="pedestrian bicycle" speed="5.56" length="6.00" width="2.00" shape="345.21,397.48 341.03,393.18"/>
    </edge>
    <edge id=":2287738475_2" function="internal">
        <lane id=":2287738475_2_0" index="0" allow="bicycle" speed="5.81" length="7.33" width="2.00" shape="345.21,397.48 343.89,395.78 343.38,394.13 343.66,392.56 344.74,391.05"/>
    </edge>
    <edge id=":2287738475_3" function="internal">
        <lane id=":2287738475_3_0" index="0" allow="pedestrian bicycle" speed="2.89" length="2.92" width="2.00" shape="345.21,397.48 345.04,396.60 345.22,396.07 345.75,395.90 346.63,396.08"/>
    </edge>
    <edge id=":2287738475_4" function="internal">
        <lane id=":2287738475_4_0" index="0" allow="pedestrian bicycle" speed="4.22" length="3.18" width="2.00" shape="347.02,393.30 346.40,394.06 346.13,394.78 346.21,395.45 346.63,396.08"/>
    </edge>
    <edge id=":2287738475_5" function="internal">
        <lane id=":2287738475_5_0" index="0" disallow="tram rail_urban rail rail_electric rail_fast ship container cable_car subway aircraft wheelchair scooter drone" speed="8.33" length="6.76" shape="347.02,393.30 342.26,398.10"/>
    </edge>
    <edge id=":2287738475_6" function="internal">
        <lane id=":2287738475_6_0" index="0" allow="pedestrian bicycle" speed="5.73" length="2.55" width="2.00" shape="347.02,393.30 345.52,394.42 344.86,394.57"/>
    </edge>
    <edge id=":2287738475_15" function="internal">
        <lane id=":2287738475_15_0" index="0" allow="pedestrian bicycle" speed="5.73" length="4.32" width="2.00" shape="344.86,394.57 344.02,394.77 342.52,394.36 341.03,393.18"/>
    </edge>
    <edge id=":2287738475_7" function="internal">
        <lane id=":2287738475_7_0" index="0" allow="bicycle" speed="3.71" length="2.66" width="2.00" shape="342.47,391.80 342.89,392.04 343.41,392.00 344.03,391.67 344.74,391.05"/>
    </edge>
    <edge id=":2287738475_8" function="internal">
        <lane id=":2287738475_8_0" index="0" allow="pedestrian bicycle" speed="5.56" length="5.97" width="2.00" shape="342.47,391.80 346.63,396.08"/>
    </edge>
    <edge id=":2287738475_9" function="internal">