<?xml version="1.0" encoding="UTF-8"?>

<!-- generated on 2024-09-03 01:36:58.942131 by randomTrips.py UNKNOWN
<configuration>
    <net-file value="train_files/roundabout/easy/outputs/map(63)_dict/map(63)/map(63).net.xml"/>
    <output-trip-file value="train_files/roundabout/easy/outputs/map(63)_dict/map(63)/map(63).trips.xml"/>
    <fringe-factor value="max"/>
    <validate value="True"/>
    <period value="3.6"/>
</configuration>
-->

<!-- generated on 2024-09-03 01:36:58 by Eclipse SUMO duarouter Version 1.20.0
<configuration xmlns:xsi="http://www.w3.org/2001/XMLSchema-instance" xsi:noNamespaceSchemaLocation="http://sumo.dlr.de/xsd/duarouterConfiguration.xsd">

    <input>
        <net-file value="train_files/roundabout/easy/outputs/map(63)_dict/map(63)/map(63).net.xml"/>
        <route-files value="train_files/roundabout/easy/outputs/map(63)_dict/map(63)/map(63).trips.xml"/>
    </input>

    <output>
        <output-file value="train_files/roundabout/easy/outputs/map(63)_dict/map(63)/map(63).trips.xml.tmp"/>
        <alternatives-output value="NUL"/>
        <write-trips value="true"/>
    </output>

    <time>
        <begin value="0"/>
        <end value="3600"/>
    </time>

    <report>
        <no-warnings value="true"/>
        <ignore-errors value="true"/>
        <no-step-log value="true"/>
    </report>

</configuration>
-->

<routes xmlns:xsi="http://www.w3.org/2001/XMLSchema-instance" xsi:noNamespaceSchemaLocation="http://sumo.dlr.de/xsd/routes_file.xsd">
    <trip id="2" depart="7.20" from="16573999#0" to="376157587"/>
    <trip id="5" depart="18.00" from="-10656483#1" to="18066754#1"/>
    <trip id="6" depart="21.60" from="-10656457" to="10656457"/>
    <trip id="7" depart="25.20" from="154275489#0" to="18066754#1"/>
    <trip id="9" depart="32.40" from="306438435#0" to="-306438435#0"/>
    <trip id="11" depart="39.60" from="-376157587" to="10656457"/>
    <trip id="12" depart="43.20" from="435452258#0" to="16574027#1"/>
    <trip id="14" depart="50.40" from="306438435#0" to="306438436"/>
    <trip id="16" depart="57.60" from="-669959992" to="669959992"/>
    <trip id="17" depart="61.20" from="-376157587" to="18066754#1"/>
    <trip id="18" depart="64.80" from="306438435#0" to="306438436"/>
    <trip id="19" depart="68.40" from="306438435#0" to="306438436"/>
    <trip id="22" depart="79.20" from="-10656457" to="10656483#1"/>
    <trip id="23" depart="82.80" from="-10656457" to="10656483#1"/>
    <trip id="24" depart="86.40" from="154275489#0" to="16574027#1"/>
    <trip id="25" depart="90.00" from="-376157587" to="10656457"/>
    <trip id="26" depart="93.60" from="-306438436" to="669959992"/>
    <trip id="28" depart="100.80" from="-10656483#1" to="376157587"/>
    <trip id="29" depart="104.40" from="-10656483#1" to="16574027#1"/>
    <trip id="31" depart="111.60" from="154275489#0" to="376157587"/>
    <trip id="33" depart="118.80" from="-306438436" to="-306438435#0"/>
    <trip id="37" depart="133.20" from="154275489#0" to="16574027#1"/>
    <trip id="38" depart="136.80" from="435452258#0" to="18066754#1"/>
    <trip id="40" depart="144.00" from="154275489#0" to="10656483#1"/>
    <trip id="42" depart="151.20" from="-376157587" to="10656457"/>
    <trip id="43" depart="154.80" from="435452258#0" to="18066754#1"/>
    <trip id="47" depart="169.20" from="-10656457" to="16574027#1"/>
    <trip id="48" depart="172.80" from="435452258#0" to="18066754#1"/>
    <trip id="49" depart="176.40" from="435452258#0" to="435452261#1"/>
    <trip id="50" depart="180.00" from="-10656457" to="376157587"/>
    <trip id="51" depart="183.60" from="16573999#0" to="18066754#1"/>
    <trip id="52" depart="187.20" from="-306438436" to="306438436"/>
    <trip id="53" depart="190.80" from="-10656483#1" to="16574027#1"/>
    <trip id="54" depart="194.40" from="-669959992" to="669959992"/>
    <trip id="57" depart="205.20" from="435452258#0" to="435452261#1"/>
    <trip id="58" depart="208.80" from="-306438436" to="306438436"/>
    <trip id="59" depart="212.40" from="154275489#0" to="10656457"/>
    <trip id="60" depart="216.00" from="16573999#0" to="18066754#1"/>
    <trip id="62" depart="223.20" from="-10656457" to="10656483#1"/>
    <trip id="65" depart="234.00" from="-306438436" to="-306438435#0"/>
    <trip id="66" depart="237.60" from="306438435#0" to="669959992"/>
    <trip id="67" depart="241.20" from="-10656457" to="18066754#1"/>
    <trip id="68" depart="244.80" from="-10656457" to="376157587"/>
    <trip id="69" depart="248.40" from="16573999#0" to="10656457"/>
    <trip id="72" depart="259.20" from="-376157587" to="10656457"/>
    <trip id="74" depart="266.40" from="-10656483#1" to="10656483#1"/>
    <trip id="76" depart="273.60" from="-376157587" to="18066754#1"/>
    <trip id="77" depart="277.20" from="-10656483#1" to="10656483#1"/>
    <trip id="81" depart="291.60" from="-306438436" to="669959992"/>
    <trip id="82" depart="295.20" from="306438435#0" to="-306438435#0"/>
    <trip id="84" depart="302.40" from="-10656483#1" to="10656457"/>
    <trip id="88" depart="316.80" from="-10656457" to="16574027#1"/>
    <trip id="89" depart="320.40" from="-376157587" to="18066754#1"/>
    <trip id="90" depart="324.00" from="16573999#0" to="376157587"/>
    <trip id="92" depart="331.20" from="-376157587" to="16574027#1"/>
    <trip id="94" depart="338.40" from="-10656483#1" to="18066754#1"/>
    <trip id="95" depart="342.00" from="-376157587" to="10656483#1"/>
    <trip id="96" depart="345.60" from="-306438436" to="669959992"/>
    <trip id="97" depart="349.20" from="-376157587" to="435452261#1"/>
    <trip id="98" depart="352.80" from="-669959992" to="-306438435#0"/>
    <trip id="99" depart="356.40" from="435452258#0" to="435452261#1"/>
    <trip id="108" depart="388.80" from="154275489#0" to="376157587"/>
    <trip id="109" depart="392.40" from="-10656483#1" to="10656483#1"/>
    <trip id="115" depart="414.00" from="-10656457" to="10656457"/>
    <trip id="116" depart="417.60" from="154275489#0" to="376157587"/>
    <trip id="118" depart="424.80" from="435452258#0" to="10656483#1"/>
    <trip id="121" depart="435.60" from="-669959992" to="669959992"/>
    <trip id="122" depart="439.20" from="-10656483#1" to="376157587"/>
    <trip id="124" depart="446.40" from="16573999#0" to="10656483#1"/>
    <trip id="126" depart="453.60" from="-10656457" to="18066754#1"/>
    <trip id="128" depart="460.80" from="-10656457" to="10656457"/>
    <trip id="129" depart="464.40" from="-306438436" to="669959992"/>
    <trip id="131" depart="471.60" from="-376157587" to="10656457"/>
    <trip id="137" depart="493.20" from="-10656483#1" to="10656457"/>
    <trip id="138" depart="496.80" from="-10656457" to="18066754#1"/>
    <trip id="139" depart="500.40" from="-306438436" to="306438436"/>
    <trip id="140" depart="504.00" from="16573999#0" to="10656457"/>
    <trip id="141" depart="507.60" from="154275489#0" to="10656483#1"/>
    <trip id="142" depart="511.20" from="-669959992" to="669959992"/>
    <trip id="143" depart="514.80" from="306438435#0" to="-306438435#0"/>
    <trip id="144" depart="518.40" from="-376157587" to="10656483#1"/>
    <trip id="145" depart="522.00" from="-10656457" to="376157587"/>
    <trip id="146" depart="525.60" from="154275489#0" to="10656483#1"/>
    <trip id="147" depart="529.20" from="16573999#0" to="18066754#1"/>
    <trip id="149" depart="536.40" from="-10656457" to="435452261#1"/>
    <trip id="150" depart="540.00" from="435452258#0" to="18066754#1"/>
    <trip id="151" depart="543.60" from="306438435#0" to="306438436"/>
    <trip id="152" depart="547.20" from="-10656483#1" to="10656457"/>
    <trip id="153" depart="550.80" from="-306438436" to="669959992"/>
    <trip id="155" depart="558.00" from="435452258#0" to="10656457"/>
    <trip id="156" depart="561.60" from="-306438436" to="-306438435#0"/>
    <trip id="160" depart="576.00" from="306438435#0" to="669959992"/>
    <trip id="162" depart="583.20" from="-10656457" to="376157587"/>
    <trip id="163" depart="586.80" from="-306438436" to="669959992"/>
    <trip id="166" depart="597.60" from="306438435#0" to="-306438435#0"/>
    <trip id="171" depart="615.60" from="-10656457" to="10656457"/>
    <trip id="173" depart="622.80" from="435452258#0" to="10656483#1"/>
    <trip id="174" depart="626.40" from="154275489#0" to="16574027#1"/>
    <trip id="175" depart="630.00" from="435452258#0" to="18066754#1"/>
    <trip id="176" depart="633.60" from="435452258#0" to="10656457"/>
    <trip id="177" depart="637.20" from="435452258#0" to="10656457"/>
    <trip id="178" depart="640.80" from="435452258#0" to="10656483#1"/>
    <trip id="179" depart="644.40" from="-10656457" to="16574027#1"/>
    <trip id="180" depart="648.00" from="16573999#0" to="10656483#1"/>
    <trip id="181" depart="651.60" from="154275489#0" to="18066754#1"/>
    <trip id="186" depart="669.60" from="16573999#0" to="376157587"/>
    <trip id="188" depart="676.80" from="154275489#0" to="10656483#1"/>
    <trip id="190" depart="684.00" from="16573999#0" to="10656483#1"/>
    <trip id="192" depart="691.20" from="-376157587" to="10656483#1"/>
    <trip id="193" depart="694.80" from="-10656483#1" to="16574027#1"/>
    <trip id="194" depart="698.40" from="435452258#0" to="376157587"/>
    <trip id="197" depart="709.20" from="-10656457" to="10656483#1"/>
    <trip id="199" depart="716.40" from="154275489#0" to="18066754#1"/>
    <trip id="200" depart="720.00" from="-376157587" to="10656457"/>
    <trip id="201" depart="723.60" from="-669959992" to="669959992"/>
    <trip id="203" depart="730.80" from="-10656457" to="18066754#1"/>
    <trip id="204" depart="734.40" from="154275489#0" to="16574027#1"/>
    <trip id="206" depart="741.60" from="16573999#0" to="10656483#1"/>
    <trip id="209" depart="752.40" from="306438435#0" to="-306438435#0"/>
    <trip id="211" depart="759.60" from="-10656483#1" to="376157587"/>
    <trip id="214" depart="770.40" from="16573999#0" to="376157587"/>
    <trip id="215" depart="774.00" from="-10656457" to="16574027#1"/>
    <trip id="217" depart="781.20" from="-669959992" to="-306438435#0"/>
    <trip id="223" depart="802.80" from="16573999#0" to="18066754#1"/>
    <trip id="225" depart="810.00" from="435452258#0" to="376157587"/>
    <trip id="227" depart="817.20" from="-306438436" to="306438436"/>
    <trip id="228" depart="820.80" from="16573999#0" to="18066754#1"/>
    <trip id="229" depart="824.40" from="154275489#0" to="10656483#1"/>
    <trip id="230" depart="828.00" from="-10656457" to="10656483#1"/>
    <trip id="235" depart="846.00" from="-376157587" to="18066754#1"/>
    <trip id="236" depart="849.60" from="-376157587" to="10656457"/>
    <trip id="238" depart="856.80" from="154275489#0" to="376157587"/>
    <trip id="241" depart="867.60" from="-376157587" to="376157587"/>
    <trip id="242" depart="871.20" from="306438435#0" to="669959992"/>
    <trip id="243" depart="874.80" from="-376157587" to="376157587"/>
    <trip id="244" depart="878.40" from="-669959992" to="306438436"/>
    <trip id="245" depart="882.00" from="-10656483#1" to="10656457"/>
    <trip id="247" depart="889.20" from="-376157587" to="376157587"/>
    <trip id="248" depart="892.80" from="-376157587" to="10656457"/>
    <trip id="253" depart="910.80" from="-10656483#1" to="18066754#1"/>
    <trip id="254" depart="914.40" from="-10656457" to="16574027#1"/>
    <trip id="255" depart="918.00" from="-10656483#1" to="10656483#1"/>
    <trip id="256" depart="921.60" from="16573999#0" to="16574027#1"/>
    <trip id="257" depart="925.20" from="16573999#0" to="435452261#1"/>
    <trip id="258" depart="928.80" from="-306438436" to="-306438435#0"/>
    <trip id="259" depart="932.40" from="-10656457" to="18066754#1"/>
    <trip id="260" depart="936.00" from="435452258#0" to="16574027#1"/>
    <trip id="261" depart="939.60" from="154275489#0" to="435452261#1"/>
    <trip id="262" depart="943.20" from="154275489#0" to="376157587"/>
    <trip id="263" depart="946.80" from="435452258#0" to="10656457"/>
    <trip id="264" depart="950.40" from="-10656457" to="10656457"/>
    <trip id="265" depart="954.00" from="-10656483#1" to="376157587"/>
    <trip id="266" depart="957.60" from="154275489#0" to="10656457"/>
    <trip id="267" depart="961.20" from="16573999#0" to="376157587"/>
    <trip id="269" depart="968.40" from="16573999#0" to="10656457"/>
    <trip id="270" depart="972.00" from="306438435#0" to="669959992"/>
    <trip id="273" depart="982.80" from="435452258#0" to="16574027#1"/>
    <trip id="276" depart="993.60" from="-10656457" to="376157587"/>
    <trip id="277" depart="997.20" from="306438435#0" to="306438436"/>
    <trip id="280" depart="1008.00" from="-376157587" to="16574027#1"/>
    <trip id="284" depart="1022.40" from="154275489#0" to="435452261#1"/>
    <trip id="285" depart="1026.00" from="16573999#0" to="16574027#1"/>
    <trip id="289" depart="1040.40" from="-376157587" to="376157587"/>
    <trip id="291" depart="1047.60" from="306438435#0" to="-306438435#0"/>
    <trip id="293" depart="1054.80" from="-669959992" to="306438436"/>
    <trip id="296" depart="1065.60" from="-10656483#1" to="435452261#1"/>
    <trip id="297" depart="1069.20" from="-376157587" to="435452261#1"/>
    <trip id="298" depart="1072.80" from="16573999#0" to="10656483#1"/>
    <trip id="300" depart="1080.00" from="-10656457" to="376157587"/>
    <trip id="304" depart="1094.40" from="-10656457" to="10656457"/>
    <trip id="305" depart="1098.00" from="16573999#0" to="10656483#1"/>
    <trip id="306" depart="1101.60" from="154275489#0" to="18066754#1"/>
    <trip id="308" depart="1108.80" from="16573999#0" to="10656483#1"/>
    <trip id="309" depart="1112.40" from="16573999#0" to="10656483#1"/>
    <trip id="311" depart="1119.60" from="-10656483#1" to="10656457"/>
    <trip id="313" depart="1126.80" from="-10656483#1" to="10656457"/>
    <trip id="315" depart="1134.00" from="435452258#0" to="18066754#1"/>
    <trip id="316" depart="1137.60" from="-306438436" to="-306438435#0"/>
    <trip id="317" depart="1141.20" from="-10656483#1" to="10656483#1"/>
    <trip id="320" depart="1152.00" from="435452258#0" to="18066754#1"/>
    <trip id="321" depart="1155.60" from="16573999#0" to="10656457"/>
    <trip id="323" depart="1162.80" from="306438435#0" to="306438436"/>
    <trip id="326" depart="1173.60" from="435452258#0" to="18066754#1"/>
    <trip id="329" depart="1184.40" from="-10656457" to="10656457"/>
    <trip id="330" depart="1188.00" from="154275489#0" to="10656483#1"/>
    <trip id="331" depart="1191.60" from="435452258#0" to="10656457"/>
    <trip id="335" depart="1206.00" from="-376157587" to="435452261#1"/>
    <trip id="336" depart="1209.60" from="435452258#0" to="10656483#1"/>
    <trip id="339" depart="1220.40" from="-10656483#1" to="10656457"/>
    <trip id="340" depart="1224.00" from="154275489#0" to="10656457"/>
    <trip id="342" depart="1231.20" from="-10656457" to="18066754#1"/>
    <trip id="343" depart="1234.80" from="154275489#0" to="10656483#1"/>
    <trip id="345" depart="1242.00" from="16573999#0" to="18066754#1"/>
    <trip id="347" depart="1249.20" from="306438435#0" to="306438436"/>
    <trip id="349" depart="1256.40" from="-376157587" to="18066754#1"/>
    <trip id="351" depart="1263.60" from="306438435#0" to="-306438435#0"/>
    <trip id="352" depart="1267.20" from="-10656483#1" to="10656483#1"/>
    <trip id="355" depart="1278.00" from="16573999#0" to="376157587"/>
    <trip id="356" depart="1281.60" from="435452258#0" to="18066754#1"/>
    <trip id="357" depart="1285.20" from="-669959992" to="-306438435#0"/>
    <trip id="358" depart="1288.80" from="-10656457" to="16574027#1"/>
    <trip id="361" depart="1299.60" from="306438435#0" to="306438436"/>
    <trip id="363" depart="1306.80" from="16573999#0" to="10656483#1"/>
    <trip id="364" depart="1310.40" from="-10656457" to="376157587"/>
    <trip id="365" depart="1314.00" from="-669959992" to="306438436"/>
    <trip id="366" depart="1317.60" from="435452258#0" to="10656457"/>
    <trip id="368" depart="1324.80" from="-669959992" to="-306438435#0"/>
    <trip id="369" depart="1328.40" from="-376157587" to="10656483#1"/>
    <trip id="370" depart="1332.00" from="16573999#0" to="435452261#1"/>
    <trip id="372" depart="1339.20" from="-306438436" to="669959992"/>
    <trip id="375" depart="1350.00" from="-306438436" to="669959992"/>
    <trip id="376" depart="1353.60" from="-376157587" to="18066754#1"/>
    <trip id="379" depart="1364.40" from="-10656483#1" to="16574027#1"/>
    <trip id="381" depart="1371.60" from="16573999#0" to="10656457"/>
    <trip id="382" depart="1375.20" from="-669959992" to="669959992"/>
    <trip id="383" depart="1378.80" from="-376157587" to="376157587"/>
    <trip id="385" depart="1386.00" from="154275489#0" to="10656483#1"/>
    <trip id="386" depart="1389.60" from="-10656483#1" to="18066754#1"/>
    <trip id="387" depart="1393.20" from="-669959992" to="-306438435#0"/>
    <trip id="391" depart="1407.60" from="16573999#0" to="18066754#1"/>
    <trip id="393" depart="1414.80" from="435452258#0" to="10656483#1"/>
    <trip id="395" depart="1422.00" from="435452258#0" to="18066754#1"/>
    <trip id="406" depart="1461.60" from="-10656483#1" to="376157587"/>
    <trip id="407" depart="1465.20" from="154275489#0" to="10656483#1"/>
    <trip id="409" depart="1472.40" from="16573999#0" to="376157587"/>
    <trip id="411" depart="1479.60" from="154275489#0" to="435452261#1"/>
    <trip id="412" depart="1483.20" from="435452258#0" to="18066754#1"/>
    <trip id="413" depart="1486.80" from="-10656457" to="18066754#1"/>
    <trip id="414" depart="1490.40" from="154275489#0" to="435452261#1"/>
    <trip id="417" depart="1501.20" from="16573999#0" to="16574027#1"/>
    <trip id="418" depart="1504.80" from="154275489#0" to="10656457"/>
    <trip id="419" depart="1508.40" from="-669959992" to="669959992"/>
    <trip id="420" depart="1512.00" from="-376157587" to="376157587"/>
    <trip id="421" depart="1515.60" from="154275489#0" to="435452261#1"/>
    <trip id="423" depart="1522.80" from="-376157587" to="10656483#1"/>
    <trip id="424" depart="1526.40" from="16573999#0" to="376157587"/>
    <trip id="425" depart="1530.00" from="306438435#0" to="-306438435#0"/>
    <trip id="428" depart="1540.80" from="16573999#0" to="16574027#1"/>
    <trip id="432" depart="1555.20" from="-10656457" to="435452261#1"/>
    <trip id="434" depart="1562.40" from="-10656483#1" to="18066754#1"/>
    <trip id="435" depart="1566.00" from="154275489#0" to="435452261#1"/>
    <trip id="437" depart="1573.20" from="306438435#0" to="306438436"/>
    <trip id="438" depart="1576.80" from="-306438436" to="669959992"/>
    <trip id="439" depart="1580.40" from="-10656483#1" to="18066754#1"/>
    <trip id="441" depart="1587.60" from="-10656457" to="435452261#1"/>
    <trip id="442" depart="1591.20" from="435452258#0" to="376157587"/>
    <trip id="443" depart="1594.80" from="-10656483#1" to="16574027#1"/>
    <trip id="445" depart="1602.00" from="154275489#0" to="16574027#1"/>
    <trip id="447" depart="1609.20" from="-10656483#1" to="16574027#1"/>
    <trip id="450" depart="1620.00" from="435452258#0" to="10656483#1"/>
    <trip id="452" depart="1627.20" from="-306438436" to="306438436"/>
    <trip id="453" depart="1630.80" from="16573999#0" to="376157587"/>
    <trip id="455" depart="1638.00" from="-669959992" to="669959992"/>
    <trip id="457" depart="1645.20" from="154275489#0" to="16574027#1"/>
    <trip id="459" depart="1652.40" from="16573999#0" to="376157587"/>
    <trip id="460" depart="1656.00" from="154275489#0" to="435452261#1"/>
    <trip id="462" depart="1663.20" from="154275489#0" to="10656483#1"/>
    <trip id="466" depart="1677.60" from="-10656483#1" to="10656457"/>
    <trip id="467" depart="1681.20" from="-669959992" to="669959992"/>
    <trip id="468" depart="1684.80" from="-669959992" to="669959992"/>
    <trip id="472" depart="1699.20" from="-376157587" to="10656457"/>
    <trip id="473" depart="1702.80" from="435452258#0" to="10656457"/>
    <trip id="474" depart="1706.40" from="435452258#0" to="435452261#1"/>
    <trip id="476" depart="1713.60" from="435452258#0" to="435452261#1"/>
    <trip id="477" depart="1717.20" from="-376157587" to="435452261#1"/>
    <trip id="478" depart="1720.80" from="-10656457" to="18066754#1"/>
    <trip id="481" depart="1731.60" from="306438435#0" to="669959992"/>
    <trip id="482" depart="1735.20" from="-10656457" to="10656483#1"/>
    <trip id="483" depart="1738.80" from="-10656457" to="435452261#1"/>
    <trip id="486" depart="1749.60" from="306438435#0" to="669959992"/>
    <trip id="490" depart="1764.00" from="-10656457" to="435452261#1"/>
    <trip id="491" depart="1767.60" from="-10656483#1" to="18066754#1"/>
    <trip id="492" depart="1771.20" from="16573999#0" to="376157587"/>
    <trip id="493" depart="1774.80" from="435452258#0" to="16574027#1"/>
    <trip id="494" depart="1778.40" from="16573999#0" to="10656457"/>
    <trip id="498" depart="1792.80" from="-376157587" to="16574027#1"/>
    <trip id="499" depart="1796.40" from="435452258#0" to="435452261#1"/>
    <trip id="500" depart="1800.00" from="-10656457" to="376157587"/>
    <trip id="501" depart="1803.60" from="-669959992" to="669959992"/>
    <trip id="502" depart="1807.20" from="-376157587" to="16574027#1"/>
    <trip id="503" depart="1810.80" from="-10656483#1" to="10656457"/>
    <trip id="509" depart="1832.40" from="-10656457" to="376157587"/>
    <trip id="510" depart="1836.00" from="-10656483#1" to="10656457"/>
    <trip id="513" depart="1846.80" from="-10656457" to="435452261#1"/>
    <trip id="514" depart="1850.40" from="-10656483#1" to="10656457"/>
    <trip id="517" depart="1861.20" from="-10656457" to="435452261#1"/>
    <trip id="520" depart="1872.00" from="16573999#0" to="18066754#1"/>
    <trip id="521" depart="1875.60" from="16573999#0" to="18066754#1"/>
    <trip id="523" depart="1882.80" from="-10656457" to="18066754#1"/>
    <trip id="529" depart="1904.40" from="16573999#0" to="18066754#1"/>
    <trip id="532" depart="1915.20" from="-10656457" to="10656483#1"/>
    <trip id="533" depart="1918.80" from="154275489#0" to="18066754#1"/>
    <trip id="534" depart="1922.40" from="-306438436" to="669959992"/>
    <trip id="537" depart="1933.20" from="16573999#0" to="435452261#1"/>
    <trip id="538" depart="1936.80" from="154275489#0" to="376157587"/>
    <trip id="539" depart="1940.40" from="16573999#0" to="10656457"/>
    <trip id="541" depart="1947.60" from="-376157587" to="18066754#1"/>
    <trip id="544" depart="1958.40" from="-376157587" to="10656457"/>
    <trip id="546" depart="1965.60" from="306438435#0" to="-306438435#0"/>
    <trip id="547" depart="1969.20" from="-10656457" to="376157587"/>
    <trip id="548" depart="1972.80" from="306438435#0" to="306438436"/>
    <trip id="552" depart="1987.20" from="16573999#0" to="435452261#1"/>
    <trip id="554" depart="1994.40" from="154275489#0" to="16574027#1"/>
    <trip id="555" depart="1998.00" from="154275489#0" to="10656457"/>
    <trip id="556" depart="2001.60" from="154275489#0" to="10656483#1"/>
    <trip id="557" depart="2005.20" from="-10656457" to="435452261#1"/>
    <trip id="558" depart="2008.80" from="-376157587" to="376157587"/>
    <trip id="559" depart="2012.40" from="154275489#0" to="435452261#1"/>
    <trip id="560" depart="2016.00" from="306438435#0" to="669959992"/>
    <trip id="561" depart="2019.60" from="306438435#0" to="306438436"/>
    <trip id="563" depart="2026.80" from="435452258#0" to="435452261#1"/>
    <trip id="565" depart="2034.00" from="16573999#0" to="10656483#1"/>
    <trip id="567" depart="2041.20" from="306438435#0" to="306438436"/>
    <trip id="568" depart="2044.80" from="-376157587" to="10656457"/>
    <trip id="570" depart="2052.00" from="16573999#0" to="10656457"/>
    <trip id="571" depart="2055.60" from="-376157587" to="16574027#1"/>
    <trip id="572" depart="2059.20" from="-376157587" to="376157587"/>
    <trip id="576" depart="2073.60" from="16573999#0" to="10656483#1"/>
    <trip id="577" depart="2077.20" from="154275489#0" to="18066754#1"/>
    <trip id="578" depart="2080.80" from="-376157587" to="10656483#1"/>
    <trip id="579" depart="2084.40" from="16573999#0" to="10656457"/>
    <trip id="580" depart="2088.00" from="-376157587" to="10656483#1"/>
    <trip id="581" depart="2091.60" from="16573999#0" to="18066754#1"/>
    <trip id="584" depart="2102.40" from="-10656457" to="10656483#1"/>
    <trip id="585" depart="2106.00" from="-10656483#1" to="10656457"/>
    <trip id="587" depart="2113.20" from="-10656457" to="376157587"/>
    <trip id="588" depart="2116.80" from="-10656483#1" to="16574027#1"/>
    <trip id="589" depart="2120.40" from="16573999#0" to="18066754#1"/>
    <trip id="591" depart="2127.60" from="-10656457" to="435452261#1"/>
    <trip id="593" depart="2134.80" from="435452258#0" to="435452261#1"/>
    <trip id="595" depart="2142.00" from="16573999#0" to="16574027#1"/>
    <trip id="598" depart="2152.80" from="154275489#0" to="435452261#1"/>
    <trip id="601" depart="2163.60" from="154275489#0" to="18066754#1"/>
    <trip id="602" depart="2167.20" from="-376157587" to="10656483#1"/>
    <trip id="603" depart="2170.80" from="-376157587" to="10656483#1"/>
    <trip id="604" depart="2174.40" from="-10656483#1" to="18066754#1"/>
    <trip id="605" depart="2178.00" from="-10656483#1" to="18066754#1"/>
    <trip id="606" depart="2181.60" from="435452258#0" to="16574027#1"/>
    <trip id="607" depart="2185.20" from="16573999#0" to="435452261#1"/>
    <trip id="609" depart="2192.40" from="-10656483#1" to="10656457"/>
    <trip id="610" depart="2196.00" from="154275489#0" to="376157587"/>
    <trip id="611" depart="2199.60" from="154275489#0" to="10656457"/>
    <trip id="612" depart="2203.20" from="16573999#0" to="18066754#1"/>
    <trip id="613" depart="2206.80" from="16573999#0" to="376157587"/>
    <trip id="614" depart="2210.40" from="-669959992" to="669959992"/>
    <trip id="616" depart="2217.60" from="154275489#0" to="435452261#1"/>
    <trip id="617" depart="2221.20" from="154275489#0" to="10656457"/>
    <trip id="618" depart="2224.80" from="-10656457" to="16574027#1"/>
    <trip id="620" depart="2232.00" from="-10656457" to="18066754#1"/>
    <trip id="622" depart="2239.20" from="-10656457" to="435452261#1"/>
    <trip id="623" depart="2242.80" from="-10656457" to="435452261#1"/>
    <trip id="624" depart="2246.40" from="306438435#0" to="306438436"/>
    <trip id="627" depart="2257.20" from="435452258#0" to="18066754#1"/>
    <trip id="628" depart="2260.80" from="306438435#0" to="306438436"/>
    <trip id="632" depart="2275.20" from="-376157587" to="376157587"/>
    <trip id="635" depart="2286.00" from="-376157587" to="18066754#1"/>
    <trip id="636" depart="2289.60" from="-10656483#1" to="16574027#1"/>
    <trip id="639" depart="2300.40" from="306438435#0" to="306438436"/>
    <trip id="641" depart="2307.60" from="16573999#0" to="10656483#1"/>
    <trip id="643" depart="2314.80" from="435452258#0" to="435452261#1"/>
    <trip id="645" depart="2322.00" from="-10656483#1" to="16574027#1"/>
    <trip id="646" depart="2325.60" from="435452258#0" to="376157587"/>
    <trip id="648" depart="2332.80" from="435452258#0" to="10656483#1"/>
    <trip id="649" depart="2336.40" from="-376157587" to="435452261#1"/>
    <trip id="652" depart="2347.20" from="16573999#0" to="18066754#1"/>
    <trip id="653" depart="2350.80" from="154275489#0" to="16574027#1"/>
    <trip id="654" depart="2354.40" from="-376157587" to="16574027#1"/>
    <trip id="655" depart="2358.00" from="-10656483#1" to="10656457"/>
    <trip id="656" depart="2361.60" from="435452258#0" to="18066754#1"/>
    <trip id="658" depart="2368.80" from="-10656457" to="435452261#1"/>
    <trip id="659" depart="2372.40" from="-10656457" to="376157587"/>
    <trip id="661" depart="2379.60" from="-10656457" to="16574027#1"/>
    <trip id="662" depart="2383.20" from="16573999#0" to="10656457"/>
    <trip id="663" depart="2386.80" from="-376157587" to="10656457"/>
    <trip id="666" depart="2397.60" from="-376157587" to="16574027#1"/>
    <trip id="667" depart="2401.20" from="16573999#0" to="10656483#1"/>
    <trip id="668" depart="2404.80" from="-376157587" to="10656483#1"/>
    <trip id="669" depart="2408.40" from="16573999#0" to="18066754#1"/>
    <trip id="675" depart="2430.00" from="-376157587" to="18066754#1"/>
    <trip id="676" depart="2433.60" from="435452258#0" to="435452261#1"/>
    <trip id="678" depart="2440.80" from="-306438436" to="306438436"/>
    <trip id="680" depart="2448.00" from="-10656457" to="435452261#1"/>
    <trip id="682" depart="2455.20" from="16573999#0" to="10656483#1"/>
    <trip id="683" depart="2458.80" from="435452258#0" to="10656457"/>
    <trip id="685" depart="2466.00" from="-10656483#1" to="18066754#1"/>
    <trip id="687" depart="2473.20" from="-10656457" to="18066754#1"/>
    <trip id="688" depart="2476.80" from="-306438436" to="669959992"/>
    <trip id="690" depart="2484.00" from="435452258#0" to="435452261#1"/>
    <trip id="691" depart="2487.60" from="154275489#0" to="435452261#1"/>
    <trip id="692" depart="2491.20" from="-10656483#1" to="10656483#1"/>
    <trip id="694" depart="2498.40" from="-10656483#1" to="376157587"/>
    <trip id="695" depart="2502.00" from="-669959992" to="-306438435#0"/>
    <trip id="696" depart="2505.60" from="-10656457" to="10656483#1"/>
    <trip id="698" depart="2512.80" from="16573999#0" to="18066754#1"/>
    <trip id="699" depart="2516.40" from="-10656483#1" to="10656483#1"/>
    <trip id="700" depart="2520.00" from="-306438436" to="-306438435#0"/>
    <trip id="701" depart="2523.60" from="-376157587" to="435452261#1"/>
    <trip id="702" depart="2527.20" from="-669959992" to="-306438435#0"/>
    <trip id="704" depart="2534.40" from="-10656457" to="18066754#1"/>