<?xml version="1.0" encoding="UTF-8"?>

<!-- generated on 2024-09-03 01:36:58 by Eclipse SUMO duarouter Version 1.20.0
<configuration xmlns:xsi="http://www.w3.org/2001/XMLSchema-instance" xsi:noNamespaceSchemaLocation="http://sumo.dlr.de/xsd/duarouterConfiguration.xsd">

    <input>
        <net-file value="train_files/roundabout/easy/outputs/map(63)_dict/map(63)/map(63).net.xml"/>
        <route-files value="train_files/roundabout/easy/outputs/map(63)_dict/map(63)/map(63).trips.xml"/>
    </input>

    <output>
        <output-file value="train_files/roundabout/easy/outputs/map(63)_dict/map(63)/map(63).rou.xml"/>
    </output>

    <report>
        <ignore-errors value="true"/>
    </report>

</configuration>
-->

<routes xmlns:xsi="http://www.w3.org/2001/XMLSchema-instance" xsi:noNamespaceSchemaLocation="http://sumo.dlr.de/xsd/routes_file.xsd">
    <vehicle id="2" depart="7.20">
        <route edges="16573999#0 16573999#1 435452269#7 435452269#8 435452269#9 435452269#0 435452269#1 435452269#2 435452269#3 10656473#0 10656473#1 376157587"/>
    </vehicle>
    <vehicle id="5" depart="18.00">
        <route edges="-10656483#1 -10656483#0 10656476#0 10656476#1 435452269#5 435452269#6 435452269#7 435452269#8 435452269#9 18066754#0 18066754#1"/>
    </vehicle>
    <vehicle id="6" depart="21.60">
        <route edges="-10656457 756270289 435452271#0 435452271#1 435452269#3 435452269#4 435452269#5 435452269#6 435452269#7 435452269#8 435452269#9 435452269#0 435452269#1 16573909#0 16573909#1 756270287 10656457"/>
    </vehicle>
    <vehicle id="7" depart="25.20">
        <route edges="154275489#0 154275489#1 435452269#1 435452269#2 435452269#3 435452269#4 435452269#5 435452269#6 435452269#7 435452269#8 435452269#9 18066754#0 18066754#1"/>
    </vehicle>
    <vehicle id="9" depart="32.40">
        <route edges="306438435#0 306438435#1 -306438435#1 -306438435#0"/>
    </vehicle>
    <vehicle id="11" depart="39.60">
        <route edges="-376157587 10656476#0 10656476#1 435452269#5 435452269#6 435452269#7 435452269#8 435452269#9 435452269#0 435452269#1 16573909#0 16573909#1 756270287 10656457"/>
    </vehicle>
    <vehicle id="12" depart="43.20">
        <route edges="435452258#0 435452258#1 435452269#9 435452269#0 435452269#1 435452269#2 435452269#3 435452269#4 435452269#5 16574027#0 16574027#1"/>
    </vehicle>
    <vehicle id="14" depart="50.40">
        <route edges="306438435#0 306438435#1 306438436"/>
    </vehicle>
    <vehicle id="16" depart="57.60">
        <route edges="-669959992 669959992"/>
    </vehicle>
    <vehicle id="17" depart="61.20">
        <route edges="-376157587 10656476#0 10656476#1 435452269#5 435452269#6 435452269#7 435452269#8 435452269#9 18066754#0 18066754#1"/>
    </vehicle>
    <vehicle id="18" depart="64.80">
        <route edges="306438435#0 306438435#1 306438436"/>
    </vehicle>
    <vehicle id="19" depart="68.40">
        <route edges="306438435#0 306438435#1 306438436"/>
    </vehicle>
    <vehicle id="22" depart="79.20">
        <route edges="-10656457 756270289 435452271#0 435452271#1 435452269#3 10656473#0 10656473#1 10656483#0 10656483#1"/>
    </vehicle>
    <vehicle id="23" depart="82.80">
        <route edges="-10656457 756270289 435452271#0 435452271#1 435452269#3 10656473#0 10656473#1 10656483#0 10656483#1"/>
    </vehicle>
    <vehicle id="24" depart="86.40">
        <route edges="154275489#0 154275489#1 435452269#1 435452269#2 435452269#3 435452269#4 435452269#5 16574027#0 16574027#1"/>
    </vehicle>
    <vehicle id="25" depart="90.00">
        <route edges="-376157587 10656476#0 10656476#1 435452269#5 435452269#6 435452269#7 435452269#8 435452269#9 435452269#0 435452269#1 16573909#0 16573909#1 756270287 10656457"/>
    </vehicle>
    <vehicle id="26" depart="93.60">
        <route edges="-306438436 669959992"/>
    </vehicle>
    <vehicle id="28" depart="100.80">
        <route edges="-10656483#1 -10656483#0 376157587"/>
    </vehicle>
    <vehicle id="29" depart="104.40">
        <route edges="-10656483#1 -10656483#0 10656476#0 10656476#1 435452269#5 16574027#0 16574027#1"/>
    </vehicle>
    <vehicle id="31" depart="111.60">
        <route edges="154275489#0 154275489#1 435452269#1 435452269#2 435452269#3 10656473#0 10656473#1 376157587"/>
    </vehicle>
    <vehicle id="33" depart="118.80">
        <route edges="-306438436 -306438435#1 -306438435#0"/>
    </vehicle>
    <vehicle id="37" depart="133.20">
        <route edges="154275489#0 154275489#1 435452269#1 435452269#2 435452269#3 435452269#4 435452269#5 16574027#0 16574027#1"/>
    </vehicle>
    <vehicle id="38" depart="136.80">
        <route edges="435452258#0 435452258#1 435452269#9 18066754#0 18066754#1"/>
    </vehicle>
    <vehicle id="40" depart="144.00">
        <route edges="154275489#0 154275489#1 435452269#1 435452269#2 435452269#3 10656473#0 10656473#1 10656483#0 10656483#1"/>
    </vehicle>
    <vehicle id="42" depart="151.20">
        <route edges="-376157587 10656476#0 10656476#1 435452269#5 435452269#6 435452269#7 435452269#8 435452269#9 435452269#0 435452269#1 16573909#0 16573909#1 756270287 10656457"/>
    </vehicle>
    <vehicle id="43" depart="154.80">
        <route edges="435452258#0 435452258#1 435452269#9 18066754#0 18066754#1"/>
    </vehicle>
    <vehicle id="47" depart="169.20">
        <route edges="-10656457 756270289 435452271#0 435452271#1 435452269#3 435452269#4 435452269#5 16574027#0 16574027#1"/>
    </vehicle>
    <vehicle id="48" depart="172.80">
        <route edges="435452258#0 435452258#1 435452269#9 18066754#0 18066754#1"/>
    </vehicle>
    <vehicle id="49" depart="176.40">
        <route edges="435452258#0 435452258#1 435452269#9 435452269#0 435452269#1 435452269#2 435452269#3 435452269#4 435452269#5 435452269#6 435452269#7 435452261#0 435452261#1"/>
    </vehicle>
    <vehicle id="50" depart="180.00">
        <route edges="-10656457 756270289 435452271#0 435452271#1 435452269#3 10656473#0 10656473#1 376157587"/>
    </vehicle>
    <vehicle id="51" depart="183.60">
        <route edges="16573999#0 16573999#1 435452269#7 435452269#8 435452269#9 18066754#0 18066754#1"/>
    </vehicle>
    <vehicle id="52" depart="187.20">
        <route edges="-306438436 306438436"/>
    </vehicle>
    <vehicle id="53" depart="190.80">
        <route edges="-10656483#1 -10656483#0 10656476#0 10656476#1 435452269#5 16574027#0 16574027#1"/>
    </vehicle>
    <vehicle id="54" depart="194.40">
        <route edges="-669959992 669959992"/>
    </vehicle>
    <vehicle id="57" depart="205.20">
        <route edges="435452258#0 435452258#1 435452269#9 435452269#0 435452269#1 435452269#2 435452269#3 435452269#4 435452269#5 435452269#6 435452269#7 435452261#0 435452261#1"/>
    </vehicle>
    <vehicle id="58" depart="208.80">
        <route edges="-306438436 306438436"/>
    </vehicle>
    <vehicle id="59" depart="212.40">
        <route edges="154275489#0 154275489#1 435452269#1 16573909#0 16573909#1 756270287 10656457"/>
    </vehicle>
    <vehicle id="60" depart="216.00">
        <route edges="16573999#0 16573999#1 435452269#7 435452269#8 435452269#9 18066754#0 18066754#1"/>
    </vehicle>
    <vehicle id="62" depart="223.20">
        <route edges="-10656457 756270289 435452271#0 435452271#1 435452269#3 10656473#0 10656473#1 10656483#0 10656483#1"/>
    </vehicle>
    <vehicle id="65" depart="234.00">
        <route edges="-306438436 -306438435#1 -306438435#0"/>
    </vehicle>
    <vehicle id="66" depart="237.60">
        <route edges="306438435#0 306438435#1 669959992"/>
    </vehicle>
    <vehicle id="67" depart="241.20">
        <route edges="-10656457 756270289 435452271#0 435452271#1 435452269#3 435452269#4 435452269#5 435452269#6 435452269#7 435452269#8 435452269#9 18066754#0 18066754#1"/>
    </vehicle>
    <vehicle id="68" depart="244.80">
        <route edges="-10656457 756270289 435452271#0 435452271#1 435452269#3 10656473#0 10656473#1 376157587"/>
    </vehicle>
    <vehicle id="69" depart="248.40">
        <route edges="16573999#0 16573999#1 435452269#7 435452269#8 435452269#9 435452269#0 435452269#1 16573909#0 16573909#1 756270287 10656457"/>
    </vehicle>
    <vehicle id="72" depart="259.20">
        <route edges="-376157587 10656476#0 10656476#1 435452269#5 435452269#6 435452269#7 435452269#8 435452269#9 435452269#0 435452269#1 16573909#0 16573909#1 756270287 10656457"/>
    </vehicle>
    <vehicle id="74" depart="266.40">
        <route edges="-10656483#1 -10656483#0 10656483#0 10656483#1"/>
    </vehicle>
    <vehicle id="76" depart="273.60">
        <route edges="-376157587 10656476#0 10656476#1 435452269#5 435452269#6 435452269#7 435452269#8 435452269#9 18066754#0 18066754#1"/>
    </vehicle>
    <vehicle id="77" depart="277.20">
        <route edges="-10656483#1 -10656483#0 10656483#0 10656483#1"/>
    </vehicle>
    <vehicle id="81" depart="291.60">
        <route edges="-306438436 669959992"/>
    </vehicle>
    <vehicle id="82" depart="295.20">
        <route edges="306438435#0 306438435#1 -306438435#1 -306438435#0"/>
    </vehicle>
    <vehicle id="84" depart="302.40">
        <route edges="-10656483#1 -10656483#0 10656476#0 10656476#1 435452269#5 435452269#6 435452269#7 435452269#8 435452269#9 435452269#0 435452269#1 16573909#0 16573909#1 756270287 10656457"/>
    </vehicle>
    <vehicle id="88" depart="316.80">
        <route edges="-10656457 756270289 435452271#0 435452271#1 435452269#3 435452269#4 435452269#5 16574027#0 16574027#1"/>
    </vehicle>
    <vehicle id="89" depart="320.40">
        <route edges="-376157587 10656476#0 10656476#1 435452269#5 435452269#6 435452269#7 435452269#8 435452269#9 18066754#0 18066754#1"/>
    </vehicle>
    <vehicle id="90" depart="324.00">
        <route edges="16573999#0 16573999#1 435452269#7 435452269#8 435452269#9 435452269#0 435452269#1 435452269#2 435452269#3 10656473#0 10656473#1 376157587"/>
    </vehicle>
    <vehicle id="92" depart="331.20">
        <route edges="-376157587 10656476#0 10656476#1 435452269#5 16574027#0 16574027#1"/>
    </vehicle>
    <vehicle id="94" depart="338.40">
        <route edges="-10656483#1 -10656483#0 10656476#0 10656476#1 435452269#5 435452269#6 435452269#7 435452269#8 435452269#9 18066754#0 18066754#1"/>
    </vehicle>
    <vehicle id="95" depart="342.00">
        <route edges="-376157587 10656483#0 10656483#1"/>
    </vehicle>
    <vehicle id="96" depart="345.60">
        <route edges="-306438436 669959992"/>
    </vehicle>
    <vehicle id="97" depart="349.20">
        <route edges="-376157587 10656476#0 10656476#1 435452269#5 435452269#6 435452269#7 435452261#0 435452261#1"/>
    </vehicle>
    <vehicle id="98" depart="352.80">
        <route edges="-669959992 -306438435#1 -306438435#0"/>
    </vehicle>
    <vehicle id="99" depart="356.40">
        <route edges="435452258#0 435452258#1 435452269#9 435452269#0 435452269#1 435452269#2 435452269#3 435452269#4 435452269#5 435452269#6 435452269#7 435452261#0 435452261#1"/>
    </vehicle>
    <vehicle id="108" depart="388.80">
        <route edges="154275489#0 154275489#1 435452269#1 435452269#2 435452269#3 10656473#0 10656473#1 376157587"/>
    </vehicle>
    <vehicle id="109" depart="392.40">
        <route edges="-10656483#1 -10656483#0 10656483#0 10656483#1"/>
    </vehicle>
    <vehicle id="115" depart="414.00">
        <route edges="-10656457 756270289 435452271#0 435452271#1 435452269#3 435452269#4 435452269#5 435452269#6 435452269#7 435452269#8 435452269#9 435452269#0 435452269#1 16573909#0 16573909#1 756270287 10656457"/>
    </vehicle>
    <vehicle id="116" depart="417.60">
        <route edges="154275489#0 154275489#1 435452269#1 435452269#2 435452269#3 10656473#0 10656473#1 376157587"/>
    </vehicle>
    <vehicle id="118" depart="424.80">
        <route edges="435452258#0 435452258#1 435452269#9 435452269#0 435452269#1 435452269#2 435452269#3 10656473#0 10656473#1 10656483#0 10656483#1"/>
    </vehicle>
    <vehicle id="121" depart="435.60">
        <route edges="-669959992 669959992"/>
    </vehicle>
    <vehicle id="122" depart="439.20">
        <route edges="-10656483#1 -10656483#0 376157587"/>
    </vehicle>
    <vehicle id="124" depart="446.40">
        <route edges="16573999#0 16573999#1 435452269#7 435452269#8 435452269#9 435452269#0 435452269#1 435452269#2 435452269#3 10656473#0 10656473#1 10656483#0 10656483#1"/>
    </vehicle>
    <vehicle id="126" depart="453.60">
        <route edges="-10656457 756270289 435452271#0 435452271#1 435452269#3 435452269#4 435452269#5 435452269#6 435452269#7 435452269#8 435452269#9 18066754#0 18066754#1"/>
    </vehicle>
    <vehicle id="128" depart="460.80">
        <route edges="-10656457 756270289 435452271#0 435452271#1 435452269#3 435452269#4 435452269#5 435452269#6 435452269#7 435452269#8 435452269#9 435452269#0 435452269#1 16573909#0 16573909#1 756270287 10656457"/>
    </vehicle>
    <vehicle id="129" depart="464.40">
        <route edges="-306438436 669959992"/>
    </vehicle>
    <vehicle id="131" depart="471.60">
        <route edges="-376157587 10656476#0 10656476#1 435452269#5 435452269#6 435452269#7 435452269#8 435452269#9 435452269#0 435452269#1 16573909#0 16573909#1 756270287 10656457"/>
    </vehicle>
    <vehicle id="137" depart="493.20">
        <route edges="-10656483#1 -10656483#0 10656476#0 10656476#1 435452269#5 435452269#6 435452269#7 435452269#8 435452269#9 435452269#0 435452269#1 16573909#0 16573909#1 756270287 10656457"/>
    </vehicle>
    <vehicle id="138" depart="496.80">
        <route edges="-10656457 756270289 435452271#0 435452271#1 435452269#3 435452269#4 435452269#5 435452269#6 435452269#7 435452269#8 435452269#9 18066754#0 18066754#1"/>
    </vehicle>
    <vehicle id="139" depart="500.40">
        <route edges="-306438436 306438436"/>
    </vehicle>
    <vehicle id="140" depart="504.00">
        <route edges="16573999#0 16573999#1 435452269#7 435452269#8 435452269#9 435452269#0 435452269#1 16573909#0 16573909#1 756270287 10656457"/>
    </vehicle>
    <vehicle id="141" depart="507.60">
        <route edges="154275489#0 154275489#1 435452269#1 435452269#2 435452269#3 10656473#0 10656473#1 10656483#0 10656483#1"/>
    </vehicle>
    <vehicle id="142" depart="511.20">
        <route edges="-669959992 669959992"/>
    </vehicle>
    <vehicle id="143" depart="514.80">
        <route edges="306438435#0 306438435#1 -306438435#1 -306438435#0"/>
    </vehicle>
    <vehicle id="144" depart="518.40">
        <route edges="-376157587 10656483#0 10656483#1"/>
    </vehicle>
    <vehicle id="145" depart="522.00">
        <route edges="-10656457 756270289 435452271#0 435452271#1 435452269#3 10656473#0 10656473#1 376157587"/>
    </vehicle>
    <vehicle id="146" depart="525.60">
        <route edges="154275489#0 154275489#1 435452269#1 435452269#2 435452269#3 10656473#0 10656473#1 10656483#0 10656483#1"/>
    </vehicle>
    <vehicle id="147" depart="529.20">
        <route edges="16573999#0 16573999#1 435452269#7 435452269#8 435452269#9 18066754#0 18066754#1"/>
    </vehicle>
    <vehicle id="149" depart="536.40">
        <route edges="-10656457 756270289 435452271#0 435452271#1 435452269#3 435452269#4 435452269#5 435452269#6 435452269#7 435452261#0 435452261#1"/>
    </vehicle>
    <vehicle id="150" depart="540.00">
        <route edges="435452258#0 435452258#1 435452269#9 18066754#0 18066754#1"/>
    </vehicle>
    <vehicle id="151" depart="543.60">
        <route edges="306438435#0 306438435#1 306438436"/>
    </vehicle>
    <vehicle id="152" depart="547.20">
        <route edges="-10656483#1 -10656483#0 10656476#0 10656476#1 435452269#5 435452269#6 435452269#7 435452269#8 435452269#9 435452269#0 435452269#1 16573909#0 16573909#1 756270287 10656457"/>
    </vehicle>
    <vehicle id="153" depart="550.80">
        <route edges="-306438436 669959992"/>
    </vehicle>
    <vehicle id="155" depart="558.00">
        <route edges="435452258#0 435452258#1 435452269#9 435452269#0 435452269#1 16573909#0 16573909#1 756270287 10656457"/>
    </vehicle>
    <vehicle id="156" depart="561.60">
        <route edges="-306438436 -306438435#1 -306438435#0"/>
    </vehicle>
    <vehicle id="160" depart="576.00">
        <route edges="306438435#0 306438435#1 669959992"/>
    </vehicle>
    <vehicle id="162" depart="583.20">
        <route edges="-10656457 756270289 435452271#0 435452271#1 435452269#3 10656473#0 10656473#1 376157587"/>
    </vehicle>
    <vehicle id="163" depart="586.80">
        <route edges="-306438436 669959992"/>
    </vehicle>
    <vehicle id="166" depart="597.60">
        <route edges="306438435#0 306438435#1 -306438435#1 -306438435#0"/>
    </vehicle>
    <vehicle id="171" depart="615.60">
        <route edges="-10656457 756270289 435452271#0 435452271#1 435452269#3 435452269#4 435452269#5 435452269#6 435452269#7 435452269#8 435452269#9 435452269#0 435452269#1 16573909#0 16573909#1 756270287 10656457"/>
    </vehicle>
    <vehicle id="173" depart="622.80">
        <route edges="435452258#0 435452258#1 435452269#9 435452269#0 435452269#1 435452269#2 435452269#3 10656473#0 10656473#1 10656483#0 10656483#1"/>
    </vehicle>
    <vehicle id="174" depart="626.40">
        <route edges="154275489#0 154275489#1 435452269#1 435452269#2 435452269#3 435452269#4 435452269#5 16574027#0 16574027#1"/>
    </vehicle>
    <vehicle id="175" depart="630.00">
        <route edges="435452258#0 435452258#1 435452269#9 18066754#0 18066754#1"/>
    </vehicle>
    <vehicle id="176" depart="633.60">
        <route edges="435452258#0 435452258#1 435452269#9 435452269#0 435452269#1 16573909#0 16573909#1 756270287 10656457"/>
    </vehicle>
    <vehicle id="177" depart="637.20">
        <route edges="435452258#0 435452258#1 435452269#9 435452269#0 435452269#1 16573909#0 16573909#1 756270287 10656457"/>
    </vehicle>
    <vehicle id="178" depart="640.80">
        <route edges="435452258#0 435452258#1 435452269#9 435452269#0 435452269#1 435452269#2 435452269#3 10656473#0 10656473#1 10656483#0 10656483#1"/>
    </vehicle>
    <vehicle id="179" depart="644.40">
        <route edges="-10656457 756270289 435452271#0 435452271#1 435452269#3 435452269#4 435452269#5 16574027#0 16574027#1"/>
    </vehicle>
    <vehicle id="180" depart="648.00">
        <route edges="16573999#0 16573999#1 435452269#7 435452269#8 435452269#9 435452269#0 435452269#1 435452269#2 435452269#3 10656473#0 10656473#1 10656483#0 10656483#1"/>
    </vehicle>
    <vehicle id="181" depart="651.60">
        <route edges="154275489#0 154275489#1 435452269#1 435452269#2 435452269#3 435452269#4 435452269#5 435452269#6 435452269#7 435452269#8 435452269#9 18066754#0 18066754#1"/>
    </vehicle>
    <vehicle id="186" depart="669.60">
        <route edges="16573999#0 16573999#1 435452269#7 435452269#8 435452269#9 435452269#0 435452269#1 435452269#2 435452269#3 10656473#0 10656473#1 376157587"/>
    </vehicle>
    <vehicle id="188" depart="676.80">
        <route edges="154275489#0 154275489#1 435452269#1 435452269#2 435452269#3 10656473#0 10656473#1 10656483#0 10656483#1"/>
    </vehicle>
    <vehicle id="190" depart="684.00">
        <route edges="16573999#0 16573999#1 435452269#7 435452269#8 435452269#9 435452269#0 435452269#1 435452269#2 435452269#3 10656473#0 10656473#1 10656483#0 10656483#1"/>
    </vehicle>
    <vehicle id="192" depart="691.20">
        <route edges="-376157587 10656483#0 10656483#1"/>
    </vehicle>
    <vehicle id="193" depart="694.80">
        <route edges="-10656483#1 -10656483#0 10656476#0 10656476#1 435452269#5 16574027#0 16574027#1"/>
    </vehicle>
    <vehicle id="194" depart="698.40">
        <route edges="435452258#0 435452258#1 435452269#9 435452269#0 435452269#1 435452269#2 435452269#3 10656473#0 10656473#1 376157587"/>
    </vehicle>
    <vehicle id="197" depart="709.20">
        <route edges="-10656457 756270289 435452271#0 435452271#1 435452269#3 10656473#0 10656473#1 10656483#0 10656483#1"/>
    </vehicle>
    <vehicle id="199" depart="716.40">
        <route edges="154275489#0 154275489#1 435452269#1 435452269#2 435452269#3 435452269#4 435452269#5 435452269#6 435452269#7 435452269#8 435452269#9 18066754#0 18066754#1"/>
    </vehicle>
    <vehicle id="200" depart="720.00">
        <route edges="-376157587 10656476#0 10656476#1 435452269#5 435452269#6 435452269#7 435452269#8 435452269#9 435452269#0 435452269#1 16573909#0 16573909#1 756270287 10656457"/>
    </vehicle>
    <vehicle id="201" depart="723.60">
        <route edges="-669959992 669959992"/>
    </vehicle>
    <vehicle id="203" depart="730.80">
        <route edges="-10656457 756270289 435452271#0 435452271#1 435452269#3 435452269#4 435452269#5 435452269#6 435452269#7 435452269#8 435452269#9 18066754#0 18066754#1"/>
    </vehicle>
    <vehicle id="204" depart="734.40">
        <route edges="154275489#0 154275489#1 435452269#1 435452269#2 435452269#3 435452269#4 435452269#5 16574027#0 16574027#1"/>
    </vehicle>
    <vehicle id="206" depart="741.60">
        <route edges="16573999#0 16573999#1 435452269#7 435452269#8 435452269#9 435452269#0 435452269#1 435452269#2 435452269#3 10656473#0 10656473#1 10656483#0 10656483#1"/>
    </vehicle>
    <vehicle id="209" depart="752.40">
        <route edges="306438435#0 306438435#1 -306438435#1 -306438435#0"/>
    </vehicle>
    <vehicle id="211" depart="759.60">
        <route edges="-10656483#1 -10656483#0 376157587"/>
    </vehicle>
    <vehicle id="214" depart="770.40">
        <route edges="16573999#0 16573999#1 435452269#7 435452269#8 435452269#9 435452269#0 435452269#1 435452269#2 435452269#3 10656473#0 10656473#1 376157587"/>
    </vehicle>
    <vehicle id="215" depart="774.00">
        <route edges="-10656457 756270289 435452271#0 435452271#1 435452269#3 435452269#4 435452269#5 16574027#0 16574027#1"/>
    </vehicle>
    <vehicle id="217" depart="781.20">
        <route edges="-669959992 -306438435#1 -306438435#0"/>
    </vehicle>
    <vehicle id="223" depart="802.80">
        <route edges="16573999#0 16573999#1 435452269#7 435452269#8 435452269#9 18066754#0 18066754#1"/>
    </vehicle>
    <vehicle id="225" depart="810.00">
        <route edges="435452258#0 435452258#1 435452269#9 435452269#0 435452269#1 435452269#2 435452269#3 10656473#0 10656473#1 376157587"/>
    </vehicle>
    <vehicle id="227" depart="817.20">
        <route edges="-306438436 306438436"/>
    </vehicle>
    <vehicle id="228" depart="820.80">
        <route edges="16573999#0 16573999#1 435452269#7 435452269#8 435452269#9 18066754#0 18066754#1"/>
    </vehicle>
    <vehicle id="229" depart="824.40">
        <route edges="154275489#0 154275489#1 435452269#1 435452269#2 435452269#3 10656473#0 10656473#1 10656483#0 10656483#1"/>
    </vehicle>
    <vehicle id="230" depart="828.00">
        <route edges="-10656457 756270289 435452271#0 435452271#1 435452269#3 10656473#0 10656473#1 10656483#0 10656483#1"/>
    </vehicle>
    <vehicle id="235" depart="846.00">
        <route edges="-376157587 10656476#0 10656476#1 435452269#5 435452269#6 435452269#7 435452269#8 435452269#9 18066754#0 18066754#1"/>
    </vehicle>
    <vehicle id="236" depart="849.60">
        <route edges="-376157587 10656476#0 10656476#1 435452269#5 435452269#6 435452269#7 435452269#8 435452269#9 435452269#0 435452269#1 16573909#0 16573909#1 756270287 10656457"/>
    </vehicle>
    <vehicle id="238" depart="856.80">
        <route edges="154275489#0 154275489#1 435452269#1 435452269#2 435452269#3 10656473#0 10656473#1 376157587"/>
    </vehicle>
    <vehicle id="241" depart="867.60">
        <route edges="-376157587 376157587"/>
    </vehicle>
    <vehicle id="242" depart="871.20">
        <route edges="306438435#0 306438435#1 669959992"/>
    </vehicle>
    <vehicle id="243" depart="874.80">
        <route edges="-376157587 376157587"/>
    </vehicle>
    <vehicle id="244" depart="878.40">
        <route edges="-669959992 306438436"/>
    </vehicle>
    <vehicle id="245" depart="882.00">
        <route edges="-10656483#1 -10656483#0 10656476#0 10656476#1 435452269#5 435452269#6 435452269#7 435452269#8 435452269#9 435452269#0 435452269#1 16573909#0 16573909#1 756270287 10656457"/>
    </vehicle>
    <vehicle id="247" depart="889.20">
        <route edges="-376157587 376157587"/>
    </vehicle>
    <vehicle id="248" depart="892.80">
        <route edges="-376157587 10656476#0 10656476#1 435452269#5 435452269#6 435452269#7 435452269#8 435452269#9 435452269#0 435452269#1 16573909#0 16573909#1 756270287 10656457"/>
    </vehicle>
    <vehicle id="253" depart="910.80">
        <route edges="-10656483#1 -10656483#0 10656476#0 10656476#1 435452269#5 435452269#6 435452269#7 435452269#8 435452269#9 18066754#0 18066754#1"/>
    </vehicle>
    <vehicle id="254" depart="914.40">
        <route edges="-10656457 756270289 435452271#0 435452271#1 435452269#3 435452269#4 435452269#5 16574027#0 16574027#1"/>
    </vehicle>
    <vehicle id="255" depart="918.00">
        <route edges="-10656483#1 -10656483#0 10656483#0 10656483#1"/>
    </vehicle>
    <vehicle id="256" depart="921.60">
        <route edges="16573999#0 16573999#1 435452269#7 435452269#8 435452269#9 435452269#0 435452269#1 435452269#2 435452269#3 435452269#4 435452269#5 16574027#0 16574027#1"/>
    </vehicle>
    <vehicle id="257" depart="925.20">
        <route edges="16573999#0 16573999#1 435452269#7 435452261#0 435452261#1"/>
    </vehicle>
    <vehicle id="258" depart="928.80">
        <route edges="-306438436 -306438435#1 -306438435#0"/>
    </vehicle>
    <vehicle id="259" depart="932.40">
        <route edges="-10656457 756270289 435452271#0 435452271#1 435452269#3 435452269#4 435452269#5 435452269#6 435452269#7 435452269#8 435452269#9 18066754#0 18066754#1"/>
    </vehicle>
    <vehicle id="260" depart="936.00">
        <route edges="435452258#0 435452258#1 435452269#9 435452269#0 435452269#1 435452269#2 435452269#3 435452269#4 435452269#5 16574027#0 16574027#1"/>
    </vehicle>
    <vehicle id="261" depart="939.60">
        <route edges="154275489#0 154275489#1 435452269#1 435452269#2 435452269#3 435452269#4 435452269#5 435452269#6 435452269#7 435452261#0 435452261#1"/>
    </vehicle>
    <vehicle id="262" depart="943.20">
        <route edges="154275489#0 154275489#1 435452269#1 435452269#2 435452269#3 10656473#0 10656473#1 376157587"/>
    </vehicle>
    <vehicle id="263" depart="946.80">
        <route edges="435452258#0 435452258#1 435452269#9 435452269#0 435452269#1 16573909#0 16573909#1 756270287 10656457"/>
    </vehicle>
    <vehicle id="264" depart="950.40">
        <route edges="-10656457 756270289 435452271#0 435452271#1 435452269#3 435452269#4 435452269#5 435452269#6 435452269#7 435452269#8 435452269#9 435452269#0 435452269#1 16573909#0 16573909#1 756270287 10656457"/>
    </vehicle>
    <vehicle id="265" depart="954.00">
        <route edges="-10656483#1 -10656483#0 376157587"/>
    </vehicle>
    <vehicle id="266" depart="957.60">
        <route edges="154275489#0 154275489#1 435452269#1 16573909#0 16573909#1 756270287 10656457"/>
    </vehicle>
    <vehicle id="267" depart="961.20">
        <route edges="16573999#0 16573999#1 435452269#7 435452269#8 435452269#9 435452269#0 435452269#1 435452269#2 435452269#3 10656473#0 10656473#1 376157587"/>
    </vehicle>
    <vehicle id="269" depart="968.40">
        <route edges="16573999#0 16573999#1 435452269#7 435452269#8 435452269#9 435452269#0 435452269#1 16573909#0 16573909#1 756270287 10656457"/>
    </vehicle>
    <vehicle id="270" depart="972.00">
        <route edges="306438435#0 306438435#1 669959992"/>
    </vehicle>
    <vehicle id="273" depart="982.80">
        <route edges="435452258#0 435452258#1 435452269#9 435452269#0 435452269#1 435452269#2 435452269#3 435452269#4 435452269#5 16574027#0 16574027#1"/>
    </vehicle>
    <vehicle id="276" depart="993.60">
        <route edges="-10656457 756270289 435452271#0 435452271#1 435452269#3 10656473#0 10656473#1 376157587"/>
    </vehicle>
    <vehicle id="277" depart="997.20">
        <route edges="306438435#0 306438435#1 306438436"/>
    </vehicle>
    <vehicle id="280" depart="1008.00">
        <route edges="-376157587 10656476#0 10656476#1 435452269#5 16574027#0 16574027#1"/>
    </vehicle>
    <vehicle id="284" depart="1022.40">
        <route edges="154275489#0 154275489#1 435452269#1 435452269#2 435452269#3 435452269#4 435452269#5 435452269#6 435452269#7 435452261#0 435452261#1"/>
    </vehicle>
    <vehicle id="285" depart="1026.00">
        <route edges="16573999#0 16573999#1 435452269#7 435452269#8 435452269#9 435452269#0 435452269#1 435452269#2 435452269#3 435452269#4 435452269#5 16574027#0 16574027#1"/>
    </vehicle>
    <vehicle id="289" depart="1040.40">
        <route edges="-376157587 376157587"/>
    </vehicle>
    <vehicle id="291" depart="1047.60">
        <route edges="306438435#0 306438435#1 -306438435#1 -306438435#0"/>
    </vehicle>
    <vehicle id="293" depart="1054.80">
        <route edges="-669959992 306438436"/>
    </vehicle>
    <vehicle id="296" depart="1065.60">
        <route edges="-10656483#1 -10656483#0 10656476#0 10656476#1 435452269#5 435452269#6 435452269#7 435452261#0 435452261#1"/>
    </vehicle>
    <vehicle id="297" depart="1069.20">
        <route edges="-376157587 10656476#0 10656476#1 435452269#5 435452269#6 435452269#7 435452261#0 435452261#1"/>
    </vehicle>
    <vehicle id="298" depart="1072.80">
        <route edges="16573999#0 16573999#1 435452269#7 435452269#8 435452269#9 435452269#0 435452269#1 435452269#2 435452269#3 10656473#0 10656473#1 10656483#0 10656483#1"/>
    </vehicle>
    <vehicle id="300" depart="1080.00">
        <route edges="-10656457 756270289 435452271#0 435452271#1 435452269#3 10656473#0 10656473#1 376157587"/>
    </vehicle>
    <vehicle id="304" depart="1094.40">
        <route edges="-10656457 756270289 435452271#0 435452271#1 435452269#3 435452269#4 435452269#5 435452269#6 435452269#7 435452269#8 435452269#9 435452269#0 435452269#1 16573909#0 16573909#1 756270287 10656457"/>
    </vehicle>
    <vehicle id="305" depart="1098.00">