<?xml version="1.0" encoding="UTF-8"?>

<!-- generated on 2024-09-03 01:38:41 by Eclipse SUMO netconvert Version 1.20.0
<configuration xmlns:xsi="http://www.w3.org/2001/XMLSchema-instance" xsi:noNamespaceSchemaLocation="http://sumo.dlr.de/xsd/netconvertConfiguration.xsd">

    <input>
        <osm-files value="train_files/intersection/hard/osm_files/map(39).osm"/>
    </input>

    <output>
        <output-file value="train_files/intersection/hard/outputs/map(39)_dict/map(39)/map(39).net.xml"/>
    </output>

    <projection>
        <proj.utm value="true"/>
    </projection>

    <building_defaults>
        <default.junctions.keep-clear value="false"/>
    </building_defaults>

</configuration>
-->

<net version="1.20" junctionCornerDetail="5" limitTurnSpeed="5.50" xmlns:xsi="http://www.w3.org/2001/XMLSchema-instance" xsi:noNamespaceSchemaLocation="http://sumo.dlr.de/xsd/net_file.xsd">

    <location netOffset="-507451.85,-5407029.86" convBoundary="0.00,0.00,508.25,1282.36" origBoundary="3.101520,48.816205,3.108444,48.827742" projParameter="+proj=utm +zone=31 +ellps=WGS84 +datum=WGS84 +units=m +no_defs"/>

    <type id="highway.residential" priority="3" numLanes="1" speed="13.89" disallow="tram rail_urban rail rail_electric rail_fast ship container cable_car subway aircraft wheelchair scooter drone" oneway="0"/>
    <type id="highway.service" priority="1" numLanes="1" speed="5.56" allow="pedestrian delivery bicycle" oneway="0"/>
    <type id="highway.unclassified" priority="4" numLanes="1" speed="13.89" disallow="tram rail_urban rail rail_electric rail_fast ship container cable_car subway aircraft wheelchair scooter drone" oneway="0"/>

    <edge id=":1650432462_0" function="internal">
        <lane id=":1650432462_0_0" index="0" disallow="tram rail_urban rail rail_electric rail_fast ship container cable_car subway aircraft wheelchair scooter drone" speed="6.63" length="6.83" shape="101.73,704.75 100.05,705.39 98.79,706.40 97.94,707.78 97.50,709.52"/>
    </edge>
    <edge id=":1650432462_1" function="internal">
        <lane id=":1650432462_1_0" index="0" allow="pedestrian delivery bicycle" speed="9.72" length="15.88" shape="101.73,704.75 97.91,705.29 93.87,705.27 89.81,704.87 85.95,704.30"/>
    </edge>
    <edge id=":1650432462_2" function="internal">
        <lane id=":1650432462_2_0" index="0" disallow="tram rail_urban rail rail_electric rail_fast ship container cable_car subway aircraft wheelchair scooter drone" speed="10.04" length="16.05" shape="101.73,704.75 98.39,704.91 95.06,703.74 91.75,701.26 88.45,697.45"/>
    </edge>
    <edge id=":1650432462_3" function="internal">
        <lane id=":1650432462_3_0" index="0" disallow="tram rail_urban rail rail_electric rail_fast ship container cable_car subway aircraft wheelchair scooter drone" speed="3.65" length="4.67" shape="101.73,704.75 100.37,704.26 99.79,703.58 99.99,702.70 100.96,701.64"/>
    </edge>
    <edge id=":1650432462_4" function="internal">
        <lane id=":1650432462_4_0" index="0" disallow="tram rail_urban rail rail_electric rail_fast ship container cable_car subway aircraft wheelchair scooter drone" speed="8.99" length="12.72" shape="90.75,695.18 93.49,698.43 96.10,700.59 98.59,701.66 100.96,701.64"/>
    </edge>
    <edge id=":1650432462_5" function="internal">
        <lane id=":1650432462_5_0" index="0" disallow="tram rail_urban rail rail_electric rail_fast ship container cable_car subway aircraft wheelchair scooter drone" speed="13.62" length="16.18" shape="90.75,695.18 93.14,698.42 95.46,702.00 97.12,705.75 97.50,709.52"/>
    </edge>
    <edge id=":1650432462_6" function="internal">
        <lane id=":1650432462_6_0" index="0" allow="pedestrian delivery bicycle" speed="6.95" length="5.27" shape="90.75,695.18 93.41,699.73"/>
    </edge>
    <edge id=":1650432462_7" function="internal">
        <lane id=":1650432462_7_0" index="0" disallow="tram rail_urban rail rail_electric rail_fast ship container cable_car subway aircraft wheelchair scooter drone" speed="3.66" length="1.46" shape="90.75,695.18 91.03,696.61"/>
    </edge>
    <edge id=":1650432462_16" function="internal">
        <lane id=":1650432462_16_0" index="0" allow="pedestrian delivery bicycle" speed="6.95" length="11.50" shape="93.41,699.73 93.55,699.96 93.68,703.07 91.14,704.52 85.95,704.30"/>
    </edge>
    <edge id=":1650432462_17" function="internal">
        <lane id=":1650432462_17_0" index="0" disallow="tram rail_urban rail rail_electric rail_fast ship container cable_car subway aircraft wheelchair scooter drone" speed="3.66" length="3.27" shape="91.03,696.61 90.74,697.46 89.88,697.75 88.45,697.45"/>
    </edge>
    <edge id=":1650432462_8" function="internal">
        <lane id=":1650432462_8_0" index="0" allow="pedestrian delivery bicycle" speed="4.72" length="6.82" shape="86.46,701.14 88.58,701.23 89.63,700.65 89.58,699.39 88.45,697.45"/>
    </edge>
    <edge id=":1650432462_9" function="internal">
        <lane id=":1650432462_9_0" index="0" allow="pedestrian delivery bicycle" speed="9.72" length="14.62" shape="86.46,701.14 90.12,701.72 93.74,702.13 97.34,702.18 100.96,701.64"/>
    </edge>
    <edge id=":1650432462_10" function="internal">
        <lane id=":1650432462_10_0" index="0" allow="pedestrian delivery bicycle" speed="8.23" length="14.60" shape="86.46,701.14 90.16,702.30 93.84,704.39 96.58,706.95 97.50,709.52"/>
    </edge>
    <edge id=":1650432462_11" function="internal">
        <lane id=":1650432462_11_0" index="0" allow="pedestrian delivery bicycle" speed="3.65" length="4.67" shape="86.46,701.14 87.51,702.12 87.78,702.97 87.26,703.70 85.95,704.30"/>
    </edge>
    <edge id=":1650432462_12" function="internal">
        <lane id=":1650432462_12_0" index="0" allow="pedestrian delivery bicycle" speed="7.05" length="10.45" shape="94.33,709.14 93.96,707.55 92.44,706.22 89.77,705.13 85.95,704.30"/>
    </edge>
    <edge id=":1650432462_13" function="internal">
        <lane id=":1650432462_13_0" index="0" disallow="tram rail_urban rail rail_electric rail_fast ship container cable_car subway aircraft wheelchair scooter drone" speed="12.46" length="13.47" shape="94.33,709.14 94.08,705.79 92.72,702.94 90.70,700.28 88.45,697.45"/>
    </edge>
    <edge id=":1650432462_14" function="internal">
        <lane id=":1650432462_14_0" index="0" disallow="tram rail_urban rail rail_electric rail_fast ship container cable_car subway aircraft wheelchair scooter drone" speed="8.15" length="1.98" shape="94.33,709.14 94.81,707.22"/>
    </edge>
    <edge id=":1650432462_15" function="internal">
        <lane id=":1650432462_15_0" index="0" disallow="tram rail_urban rail rail_electric rail_fast ship container cable_car subway aircraft wheelchair scooter drone" speed="3.65" length="1.23" shape="94.33,709.14 95.13,708.20"/>
    </edge>
    <edge id=":1650432462_18" function="internal">
        <lane id=":1650432462_18_0" index="0" disallow="tram rail_urban rail rail_electric rail_fast ship container cable_car subway aircraft wheelchair scooter drone" speed="8.15" length="8.74" shape="94.81,707.22 95.01,706.40 96.35,704.24 98.33,702.65 100.96,701.64"/>
    </edge>
    <edge id=":1650432462_19" function="internal">
        <lane id=":1650432462_19_0" index="0" disallow="tram rail_urban rail rail_electric rail_fast ship container cable_car subway aircraft wheelchair scooter drone" speed="3.65" length="3.44" shape="95.13,708.20 95.26,708.04 96.10,707.74 96.85,708.23 97.50,709.52"/>
    </edge>
    <edge id=":1650432471_0" function="internal">
        <lane id=":1650432471_0_0" index="0" allow="pedestrian delivery bicycle" speed="3.65" length="4.67" shape="42.15,720.00 41.16,721.06 40.31,721.32 39.59,720.80 38.99,719.49"/>
    </edge>
    <edge id=":473419118_0" function="internal">
        <lane id=":473419118_0_0" index="0" disallow="tram rail_urban rail rail_electric rail_fast ship container cable_car subway aircraft wheelchair scooter drone" speed="3.65" length="4.67" shape="-0.34,654.78 -1.34,653.74 -1.56,652.87 -1.00,652.17 0.34,651.65"/>
    </edge>
    <edge id=":473419120_0" function="internal">
        <lane id=":473419120_0_0" index="0" disallow="tram rail_urban rail rail_electric rail_fast ship container cable_car subway aircraft wheelchair scooter drone" speed="13.89" length="12.80" shape="81.32,687.97 79.09,685.38 77.07,683.15 74.87,681.14 72.08,679.21"/>
    </edge>
    <edge id=":473419120_1" function="internal">
        <lane id=":473419120_1_0" index="0" disallow="tram rail_urban rail rail_electric rail_fast ship container cable_car subway aircraft wheelchair scooter drone" speed="8.03" length="3.75" shape="81.32,687.97 79.37,684.98 79.34,684.81"/>
    </edge>
    <edge id=":473419120_2" function="internal">
        <lane id=":473419120_2_0" index="0" disallow="tram rail_urban rail rail_electric rail_fast ship container cable_car subway aircraft wheelchair scooter drone" speed="3.65" length="1.44" shape="81.32,687.97 81.14,686.54"/>
    </edge>
    <edge id=":473419120_9" function="internal">
        <lane id=":473419120_9_0" index="0" disallow="tram rail_urban rail rail_electric rail_fast ship container cable_car subway aircraft wheelchair scooter drone" speed="8.03" length="9.41" shape="79.34,684.81 78.75,682.01 79.46,679.08 81.49,676.18"/>
    </edge>
    <edge id=":473419120_10" function="internal">
        <lane id=":473419120_10_0" index="0" disallow="tram rail_urban rail rail_electric rail_fast ship container cable_car subway aircraft wheelchair scooter drone" speed="3.65" length="3.23" shape="81.14,686.54 81.48,685.72 82.35,685.50 83.74,685.88"/>
    </edge>
    <edge id=":473419120_3" function="internal">
        <lane id=":473419120_3_0" index="0" disallow="tram rail_urban rail rail_electric rail_fast ship container cable_car subway aircraft wheelchair scooter drone" speed="5.55" length="9.63" shape="84.29,679.25 81.92,679.70 81.04,680.95 81.65,683.01 83.74,685.88"/>
    </edge>
    <edge id=":473419120_4" function="internal">
        <lane id=":473419120_4_0" index="0" disallow="tram rail_urban rail rail_electric rail_fast ship container cable_car subway aircraft wheelchair scooter drone" speed="13.89" length="12.49" shape="84.29,679.25 80.87,679.64 77.91,680.23 75.09,680.32 72.08,679.21"/>
    </edge>
    <edge id=":473419120_5" function="internal">
        <lane id=":473419120_5_0" index="0" disallow="tram rail_urban rail rail_electric rail_fast ship container cable_car subway aircraft wheelchair scooter drone" speed="4.53" length="6.07" shape="84.29,679.25 82.44,679.54 81.35,679.12 81.04,678.00 81.49,676.18"/>
    </edge>
    <edge id=":473419120_6" function="internal">
        <lane id=":473419120_6_0" index="0" disallow="tram rail_urban rail rail_electric rail_fast ship container cable_car subway aircraft wheelchair scooter drone" speed="6.49" length="8.35" shape="74.05,676.69 76.02,677.83 77.92,678.13 79.75,677.58 81.49,676.18"/>
    </edge>
    <edge id=":473419120_7" function="internal">
        <lane id=":473419120_7_0" index="0" disallow="tram rail_urban rail rail_electric rail_fast ship container cable_car subway aircraft wheelchair scooter drone" speed="13.89" length="13.38" shape="74.05,676.69 76.76,678.89 79.14,681.02 81.40,683.28 83.74,685.88"/>
    </edge>
    <edge id=":473419120_8" function="internal">
        <lane id=":473419120_8_0" index="0" disallow="tram rail_urban rail rail_electric rail_fast ship container cable_car subway aircraft wheelchair scooter drone" speed="3.70" length="1.44" shape="74.05,676.69 74.50,678.06"/>
    </edge>
    <edge id=":473419120_11" function="internal">
        <lane id=":473419120_11_0" index="0" disallow="tram rail_urban rail rail_electric rail_fast ship container cable_car subway aircraft wheelchair scooter drone" speed="3.70" length="3.24" shape="74.50,678.06 74.33,678.93 73.52,679.32 72.08,679.21"/>
    </edge>
    <edge id=":473436570_0" function="internal">
        <lane id=":473436570_0_0" index="0" disallow="tram rail_urban rail rail_electric rail_fast ship container cable_car subway aircraft wheelchair scooter drone" speed="3.65" length="4.67" shape="508.62,632.32 509.60,633.38 509.80,634.25 509.23,634.93 507.87,635.43"/>
    </edge>
    <edge id=":473436587_0" function="internal">
        <lane id=":473436587_0_0" index="0" disallow="tram rail_urban rail rail_electric rail_fast ship container cable_car subway aircraft wheelchair scooter drone" speed="3.65" length="4.67" shape="321.47,-0.76 322.75,-1.44 323.64,-1.41 324.16,-0.68 324.29,0.76"/>
    </edge>
    <edge id=":473436597_0" function="internal">
        <lane id=":473436597_0_0" index="0" disallow="tram rail_urban rail rail_electric rail_fast ship container cable_car subway aircraft wheelchair scooter drone" speed="7.99" length="10.50" shape="123.34,681.04 120.66,681.15 118.37,682.04 116.48,683.70 114.99,686.13"/>
    </edge>
    <edge id=":473436597_1" function="internal">
        <lane id=":473436597_1_0" index="0" disallow="tram rail_urban rail rail_electric rail_fast ship container cable_car subway aircraft wheelchair scooter drone" speed="13.89" length="15.22" shape="123.34,681.04 119.59,680.50 115.82,679.79 112.04,679.17 108.28,678.94"/>
    </edge>
    <edge id=":473436597_2" function="internal">
        <lane id=":473436597_2_0" index="0" disallow="tram rail_urban rail rail_electric rail_fast ship container cable_car subway aircraft wheelchair scooter drone" speed="7.67" length="14.56" shape="123.34,681.04 119.80,680.06 117.66,677.93 116.90,674.64 117.54,670.20"/>
    </edge>
    <edge id=":473436597_3" function="internal">
        <lane id=":473436597_3_0" index="0" disallow="tram rail_urban rail rail_electric rail_fast ship container cable_car subway aircraft wheelchair scooter drone" speed="3.70" length="1.50" shape="123.34,681.04 122.48,679.81"/>
    </edge>
    <edge id=":473436597_16" function="internal">
        <lane id=":473436597_16_0" index="0" disallow="tram rail_urban rail rail_electric rail_fast ship container cable_car subway aircraft wheelchair scooter drone" speed="3.70" length="3.36" shape="122.48,679.81 122.40,678.89 123.09,678.26 124.55,677.94"/>
    </edge>
    <edge id=":473436597_4" function="internal">
        <lane id=":473436597_4_0" index="0" disallow="tram rail_urban rail rail_electric rail_fast ship container cable_car subway aircraft wheelchair scooter drone" speed="6.30" length="9.44" shape="120.63,671.02 120.24,673.85 120.76,675.94 122.20,677.31 124.55,677.94"/>
    </edge>
    <edge id=":473436597_5" function="internal">
        <lane id=":473436597_5_0" index="0" disallow="tram rail_urban rail rail_electric rail_fast ship container cable_car subway aircraft wheelchair scooter drone" speed="13.89" length="16.14" shape="120.63,671.02 119.50,674.78 118.11,678.68 116.57,682.53 114.99,686.13"/>
    </edge>
    <edge id=":473436597_6" function="internal">
        <lane id=":473436597_6_0" index="0" disallow="tram rail_urban rail rail_electric rail_fast ship container cable_car subway aircraft wheelchair scooter drone" speed="9.41" length="2.56" shape="120.63,671.02 119.58,673.35"/>
    </edge>
    <edge id=":473436597_7" function="internal">
        <lane id=":473436597_7_0" index="0" disallow="tram rail_urban rail rail_electric rail_fast ship container cable_car subway aircraft wheelchair scooter drone" speed="3.65" length="1.32" shape="120.63,671.02 119.64,671.89"/>
    </edge>
    <edge id=":473436597_17" function="internal">
        <lane id=":473436597_17_0" index="0" disallow="tram rail_urban rail rail_electric rail_fast ship container cable_car subway aircraft wheelchair scooter drone" speed="9.41" length="13.31" shape="119.58,673.35 119.09,674.43 116.51,676.89 112.91,678.39 108.28,678.94"/>
    </edge>
    <edge id=":473436597_18" function="internal">
        <lane id=":473436597_18_0" index="0" disallow="tram rail_urban rail rail_electric rail_fast ship container cable_car subway aircraft wheelchair scooter drone" speed="3.65" length="3.35" shape="119.64,671.89 119.55,671.97 118.67,672.15 118.00,671.56 117.54,670.20"/>
    </edge>
    <edge id=":473436597_8" function="internal">
        <lane id=":473436597_8_0" index="0" disallow="tram rail_urban rail rail_electric rail_fast ship container cable_car subway aircraft wheelchair scooter drone" speed="8.15" length="11.69" shape="108.24,675.74 111.77,675.35 114.49,674.30 116.42,672.58 117.54,670.20"/>
    </edge>
    <edge id=":473436597_9" function="internal">
        <lane id=":473436597_9_0" index="0" disallow="tram rail_urban rail rail_electric rail_fast ship container cable_car subway aircraft wheelchair scooter drone" speed="13.89" length="16.48" shape="108.24,675.74 112.20,675.99 116.40,676.64 120.61,677.39 124.55,677.94"/>
    </edge>
    <edge id=":473436597_10" function="internal">
        <lane id=":473436597_10_0" index="0" disallow="tram rail_urban rail rail_electric rail_fast ship container cable_car subway aircraft wheelchair scooter drone" speed="7.45" length="16.28" shape="108.24,675.74 113.01,676.33 115.73,678.26 116.39,681.52 114.99,686.13"/>
    </edge>
    <edge id=":473436597_11" function="internal">
        <lane id=":473436597_11_0" index="0" disallow="tram rail_urban rail rail_electric rail_fast ship container cable_car subway aircraft wheelchair scooter drone" speed="3.65" length="4.67" shape="108.24,675.74 109.45,676.52 109.86,677.32 109.47,678.12 108.28,678.94"/>
    </edge>
    <edge id=":473436597_12" function="internal">
        <lane id=":473436597_12_0" index="0" disallow="tram rail_urban rail rail_electric rail_fast ship container cable_car subway aircraft wheelchair scooter drone" speed="5.76" length="9.17" shape="112.08,684.79 112.87,682.19 112.50,680.36 110.97,679.27 108.28,678.94"/>
    </edge>
    <edge id=":473436597_13" function="internal">
        <lane id=":473436597_13_0" index="0" disallow="tram rail_urban rail rail_electric rail_fast ship container cable_car subway aircraft wheelchair scooter drone" speed="13.89" length="15.59" shape="112.08,684.79 113.64,681.27 115.11,677.60 116.44,673.88 117.54,670.20"/>
    </edge>
    <edge id=":473436597_14" function="internal">
        <lane id=":473436597_14_0" index="0" disallow="tram rail_urban rail rail_electric rail_fast ship container cable_car subway aircraft wheelchair scooter drone" speed="9.53" length="15.28" shape="112.08,684.79 114.19,681.47 116.97,679.23 120.43,678.05 124.55,677.94"/>
    </edge>
    <edge id=":473436597_15" function="internal">
        <lane id=":473436597_15_0" index="0" disallow="tram rail_urban rail rail_electric rail_fast ship container cable_car subway aircraft wheelchair scooter drone" speed="3.65" length="4.67" shape="112.08,684.79 113.31,684.03 114.20,684.00 114.76,684.70 114.99,686.13"/>
    </edge>
    <edge id=":473436638_0" function="internal">
        <lane id=":473436638_0_0" index="0" disallow="tram rail_urban rail rail_electric rail_fast ship container cable_car subway aircraft wheelchair scooter drone" speed="3.65" length="4.67" shape="234.16,1282.64 233.16,1283.68 232.31,1283.94 231.59,1283.40 231.01,1282.08"/>
    </edge>

    <edge id="-152209333" from="473436597" to="473419120" priority="3" type="highway.residential" shape="117.33,677.22 82.28,677.68 78.25,681.99">
        <lane id="-152209333_0" index="0" disallow="tram rail_urban rail rail_electric rail_fast ship container cable_car subway aircraft wheelchair scooter drone" speed="13.89" length="24.00" shape="108.28,678.94 84.29,679.25"/>
    </edge>
    <edge id="-152209392" from="1650432471" to="1650432462" priority="1" type="highway.service" shape="40.57,719.74 42.42,708.43 43.13,704.54 48.70,702.07 80.52,701.80 96.51,704.38">
        <lane id="-152209392_0" index="0" allow="pedestrian delivery bicycle" speed="5.56" length="61.74" shape="38.99,719.49 40.84,708.16 41.71,703.42 48.35,700.47 80.64,700.20 86.46,701.14"/>
    </edge>
    <edge id="-182438097#0" from="473419120" to="473419118" priority="3" type="highway.residential" shape="78.25,681.99 73.02,677.91 56.19,667.72 42.47,662.59 0.00,653.21">
        <lane id="-182438097#0_0" index="0" disallow="tram rail_urban rail rail_electric rail_fast ship container cable_car subway aircraft wheelchair scooter drone" speed="13.89" length="77.16" shape="72.08,679.21 55.49,669.16 42.01,664.12 -0.34,654.78"/>
    </edge>
    <edge id="-182438097#1" from="1650432462" to="473419120" priority="3" type="highway.residential" shape="96.51,704.38 92.72,700.55 83.68,688.26 78.25,681.99">
        <lane id="-182438097#1_0" index="0" disallow="tram rail_urban rail rail_electric rail_fast ship container cable_car subway aircraft wheelchair scooter drone" speed="13.89" length="11.87" shape="88.45,697.45 82.43,689.26 81.32,687.97"/>
    </edge>
    <edge id="-182438121" from="473436587" to="473436597" priority="4" type="highway.unclassified" shape="322.88,0.00 318.96,7.31 316.59,14.13 315.10,20.07 306.40,83.76 302.58,100.54 297.39,116.15 290.48,133.12 268.13,180.20 248.45,238.05 241.00,267.39 232.78,321.46 230.38,345.61 226.90,373.67 219.27,404.78 208.70,434.21 202.68,447.26 191.12,474.34 165.57,513.95 154.12,534.26 130.15,575.35 126.98,584.58 121.12,662.92 119.23,670.07 117.33,677.22">
        <lane id="-182438121_0" index="0" disallow="tram rail_urban rail rail_electric rail_fast ship container cable_car subway aircraft wheelchair scooter drone" speed="13.89" length="709.67" shape="324.29,0.76 320.43,7.95 318.12,14.59 316.68,20.37 307.97,84.05 304.13,100.97 298.90,116.71 291.94,133.76 269.62,180.80 249.98,238.51 242.57,267.70 234.36,321.66 231.97,345.79 228.47,373.96 220.81,405.24 210.18,434.81 204.14,447.91 192.54,475.09 166.94,514.78 155.51,535.05 131.61,576.02 128.56,584.90 122.70,663.18 120.77,670.48 120.63,671.02"/>
    </edge>
    <edge id="-211191203" from="473436597" to="1650432462" priority="3" type="highway.residential" shape="117.33,677.22 108.32,696.77 102.15,703.00 96.51,704.38">
        <lane id="-211191203_0" index="0" disallow="tram rail_urban rail rail_electric rail_fast ship container cable_car subway aircraft wheelchair scooter drone" speed="13.89" length="23.52" shape="114.99,686.13 109.66,697.69 102.97,704.44 101.73,704.75"/>
    </edge>
    <edge id="-39519006" from="473436570" to="473436597" priority="4" type="highway.unclassified" shape="508.25,633.87 466.44,623.79 412.59,603.85 355.50,591.53 312.76,599.56 281.32,605.47 243.49,626.19 202.11,657.37 184.66,666.61 165.19,673.54 133.37,680.40 122.76,679.38 117.33,677.22">
        <lane id="-39519006_0" index="0" disallow="tram rail_urban rail rail_electric rail_fast ship container cable_car subway aircraft wheelchair scooter drone" speed="13.89" length="411.91" shape="507.87,635.43 465.97,625.32 412.14,605.39 355.48,593.16 313.05,601.13 281.87,607.00 244.36,627.54 202.97,658.72 185.30,668.08 165.63,675.08 133.47,682.01 123.34,681.04"/>
    </edge>
    <edge id="-39519007" from="473436638" to="1650432462" priority="3" type="highway.residential" shape="232.58,1282.36 233.33,1278.14 236.75,1259.30 233.95,1236.54 229.33,1212.24 227.29,1199.52 224.60,1189.46 221.01,1177.78 216.70,1167.47 189.12,1112.41 184.13,1090.92 181.53,1078.25 164.69,1019.78 154.52,988.47 144.87,962.41 135.46,942.57 120.74,917.01 108.51,886.14 100.52,865.26 98.90,858.77 96.71,845.38 95.05,832.51 93.76,805.28 93.63,794.28 92.65,753.98 92.61,743.88 94.71,719.39 96.51,704.38">
        <lane id="-39519007_0" index="0" disallow="tram rail_urban rail rail_electric rail_fast ship container cable_car subway aircraft wheelchair scooter drone" speed="13.89" length="599.47" shape="231.01,1282.08 231.76,1277.85 235.13,1259.26 232.37,1236.79 227.76,1212.51 225.72,1199.85 223.06,1189.91 219.51,1178.32 215.24,1168.13 187.60,1112.96 182.56,1091.26 179.98,1078.64 163.16,1020.25 153.01,988.99 143.39,963.03 134.04,943.32 119.30,917.71 107.02,886.73 98.99,865.74 97.34,859.10 95.12,845.61 93.45,832.65 92.16,805.32 92.03,794.31 91.05,754.01 91.01,743.81 93.12,719.23 94.33,709.14"/>
    </edge>
    <edge id="152209333" from="473419120" to="473436597" priority="3" type="highway.residential" shape="78.25,681.99 82.28,677.68 117.33,677.22">
        <lane id="152209333_0" index="0" disallow="tram rail_urban rail rail_electric rail_fast ship container cable_car subway aircraft wheelchair scooter drone" speed="13.89" length="26.79" shape="81.49,676.18 81.58,676.09 108.24,675.74"/>
    </edge>
    <edge id="152209392" from="1650432462" to="1650432471" priority="1" type="highway.service" shape="96.51,704.38 80.52,701.80 48.70,702.07 43.13,704.54 42.42,708.43 40.57,719.74">
        <lane id="152209392_0" index="0" allow="pedestrian delivery bicycle" speed="5.56" length="56.43" shape="85.95,704.30 80.39,703.40 49.04,703.67 44.55,705.66 44.00,708.70 42.15,720.00"/>
    </edge>
    <edge id="182438097#0" from="473419118" to="473419120" priority="3" type="highway.residential" shape="0.00,653.21 42.47,662.59 56.19,667.72 73.02,677.91 78.25,681.99">
        <lane id="182438097#0_0" index="0" disallow="tram rail_urban rail rail_electric rail_fast ship container cable_car subway aircraft wheelchair scooter drone" speed="13.89" length="78.58" shape="0.34,651.65 42.92,661.05 56.89,666.27 73.93,676.59 74.05,676.69"/>
    </edge>
    <edge id="182438097#1" from="473419120" to="1650432462" priority="3" type="highway.residential" shape="78.25,681.99 83.68,688.26 92.72,700.55 96.51,704.38">
        <lane id="182438097#1_0" index="0" disallow="tram rail_urban rail rail_electric rail_fast ship container cable_car subway aircraft wheelchair scooter drone" speed="13.89" length="11.65" shape="83.74,685.88 84.93,687.27 90.75,695.18"/>
    </edge>
    <edge id="182438121" from="473436597" to="473436587" priority="4" type="highway.unclassified" shape="117.33,677.22 119.23,670.07 121.12,662.92 126.98,584.58 130.15,575.35 154.12,534.26 165.57,513.95 191.12,474.34 202.68,447.26 208.70,434.21 219.27,404.78 226.90,373.67 230.38,345.61 232.78,321.46 241.00,267.39 248.45,238.05 268.13,180.20 290.48,133.12 297.39,116.15 302.58,100.54 306.40,83.76 315.10,20.07 316.59,14.13 318.96,7.31 322.88,0.00">
        <lane id="182438121_0" index="0" disallow="tram rail_urban rail rail_electric rail_fast ship container cable_car subway aircraft wheelchair scooter drone" speed="13.89" length="710.42" shape="117.54,670.20 117.68,669.66 119.53,662.65 125.40,584.25 128.68,574.68 152.74,533.46 164.20,513.12 189.70,473.58 201.21,446.61 207.22,433.60 217.74,404.31 225.32,373.38 228.79,345.43 231.19,321.26 239.43,267.07 246.91,237.59 266.65,179.59 289.01,132.47 295.89,115.60 301.04,100.11 304.82,83.47 313.53,19.76 315.05,13.67 317.49,6.66 321.47,-0.76"/>
    </edge>
    <edge id="211191203" from="1650432462" to="473436597" priority="3" type="highway.residential" shape="96.51,704.38 102.15,703.00 108.32,696.77 117.33,677.22">
        <lane id="211191203_0" index="0" disallow="tram rail_urban rail rail_electric rail_fast ship container cable_car subway aircraft wheelchair scooter drone" speed="13.89" length="20.59" shape="100.96,701.64 101.33,701.55 106.99,695.84 112.08,684.79"/>
    </edge>
    <edge id="39519006" from="473436597" to="473436570" priority="4" type="highway.unclassified" shape="117.33,677.22 122.76,679.38 133.37,680.40 165.19,673.54 184.66,666.61 202.11,657.37 243.49,626.19 281.32,605.47 312.76,599.56 355.50,591.53 412.59,603.85 466.44,623.79 508.25,633.87">
        <lane id="39519006_0" index="0" disallow="tram rail_urban rail rail_electric rail_fast ship container cable_car subway aircraft wheelchair scooter drone" speed="13.89" length="411.46" shape="124.55,677.94 133.28,678.78 164.75,671.99 184.01,665.15 201.25,656.01 242.62,624.84 280.78,603.95 312.46,597.99 355.52,589.89 413.04,602.31 466.90,622.25 508.62,632.32"/>
    </edge>
    <edge id="39519007" from="1650432462" to="473436638" priority="3" type="highway.residential" shape="96.51,704.38 94.71,719.39 92.61,743.88 92.65,753.98 93.63,794.28 93.76,805.28 95.05,832.51 96.71,845.38 98.90,858.77 100.52,865.26 108.51,886.14 120.74,917.01 135.46,942.57 144.87,962.41 154.52,988.47 164.69,1019.78 181.53,1078.25 184.13,1090.92 189.12,1112.41 216.70,1167.47 221.01,1177.78 224.60,1189.46 227.29,1199.52 229.33,1212.24 233.95,1236.54 236.75,1259.30 233.33,1278.14 232.58,1282.36">
        <lane id="39519007_0" index="0" disallow="tram rail_urban rail rail_electric rail_fast ship container cable_car subway aircraft wheelchair scooter drone" speed="13.89" length="599.65" shape="97.50,709.52 96.30,719.56 94.21,743.95 94.25,753.96 95.23,794.25 95.36,805.23 96.64,832.37 98.29,845.14 100.47,858.45 102.05,864.78 110.00,885.56 122.19,916.31 136.88,941.83 146.34,961.78 156.03,987.94 166.22,1019.31 183.09,1077.87 185.69,1090.58 190.63,1111.87 218.15,1166.80 222.52,1177.23 226.13,1189.02 228.86,1199.18 230.91,1211.96 235.53,1236.30 238.37,1259.35 234.91,1278.42 234.16,1282.64"/>
    </edge>

    <junction id="1650432462" type="priority" x="96.51" y="704.38" incLanes="-211191203_0 182438097#1_0 -152209392_0 -39519007_0" intLanes=":1650432462_0_0 :1650432462_1_0 :1650432462_2_0 :1650432462_3_0 :1650432462_4_0 :1650432462_5_0 :1650432462_16_0 :1650432462_17_0 :1650432462_8_0 :1650432462_9_0 :1650432462_10_0 :1650432462_11_0 :1650432462_12_0 :1650432462_13_0 :1650432462_18_0 :1650432462_19_0" shape="102.11,706.30 100.57,700.05 98.50,700.50 97.17,699.79 95.63,698.48 93.87,696.56 91.90,694.04 87.30,698.59 87.63,699.23 87.60,699.43 87.43,699.56 87.14,699.60 86.71,699.56 85.69,705.88 87.91,706.29 89.71,706.74 91.09,707.23 92.06,707.76 92.60,708.34 92.74,708.95 99.09,709.71 99.57,708.11 100.01,707.48 100.58,706.97 101.28,706.58">
        <request index="0"  response="0000000000100000" foes="1000010000100000" cont="0"/>
        <request index="1"  response="0111000001100000" foes="0111110001100000" cont="0"/>
        <request index="2"  response="0110001101100000" foes="0110011111100000" cont="0"/>
        <request index="3"  response="0100001000010000" foes="0100001000010000" cont="0"/>