<?xml version="1.0" encoding="UTF-8"?>

<!-- generated on 2024-09-03 01:38:12 by Eclipse SUMO netconvert Version 1.20.0
<configuration xmlns:xsi="http://www.w3.org/2001/XMLSchema-instance" xsi:noNamespaceSchemaLocation="http://sumo.dlr.de/xsd/netconvertConfiguration.xsd">

    <input>
        <osm-files value="train_files/roundabout/hard/osm_files/map(17).osm"/>
    </input>

    <output>
        <output-file value="train_files/roundabout/hard/outputs/map(17)_dict/map(17)/map(17).net.xml"/>
    </output>

    <projection>
        <proj.utm value="true"/>
    </projection>

    <building_defaults>
        <default.junctions.keep-clear value="false"/>
    </building_defaults>

</configuration>
-->

<net version="1.20" junctionCornerDetail="5" limitTurnSpeed="5.50" xmlns:xsi="http://www.w3.org/2001/XMLSchema-instance" xsi:noNamespaceSchemaLocation="http://sumo.dlr.de/xsd/net_file.xsd">

    <location netOffset="-434947.02,-5438897.39" convBoundary="0.00,0.00,4498.35,2730.41" origBoundary="2.108818,49.099483,2.170026,49.124501" projParameter="+proj=utm +zone=31 +ellps=WGS84 +datum=WGS84 +units=m +no_defs"/>

    <type id="highway.primary" priority="12" numLanes="2" speed="27.78" disallow="tram rail_urban rail rail_electric rail_fast ship container cable_car subway aircraft wheelchair scooter drone" oneway="0"/>
    <type id="highway.secondary" priority="11" numLanes="1" speed="27.78" disallow="tram rail_urban rail rail_electric rail_fast ship container cable_car subway aircraft wheelchair scooter drone" oneway="0"/>
    <type id="highway.tertiary" priority="10" numLanes="1" speed="22.22" disallow="tram rail_urban rail rail_electric rail_fast ship container cable_car subway aircraft wheelchair scooter drone" oneway="0"/>
    <type id="highway.track" priority="1" numLanes="1" speed="5.56" allow="pedestrian motorcycle moped bicycle" oneway="0"/>

    <edge id=":2069873166_0" function="internal">
        <lane id=":2069873166_0_0" index="0" allow="pedestrian motorcycle moped bicycle" speed="3.65" length="4.67" shape="1336.74,276.37 1337.80,275.39 1338.67,275.19 1339.36,275.76 1339.86,277.11"/>
    </edge>
    <edge id=":2069873183_0" function="internal">
        <lane id=":2069873183_0_0" index="0" disallow="tram rail_urban rail rail_electric rail_fast ship container cable_car subway aircraft wheelchair scooter drone" speed="3.66" length="4.66" shape="1439.13,543.38 1438.72,542.00 1438.92,541.13 1439.74,540.77 1441.17,540.93"/>
    </edge>
    <edge id=":2069873195_0" function="internal">
        <lane id=":2069873195_0_0" index="0" disallow="tram rail_urban rail rail_electric rail_fast ship container cable_car subway aircraft wheelchair scooter drone" speed="22.22" length="13.80" shape="1580.31,606.26 1566.72,608.70"/>
    </edge>
    <edge id=":2069873195_1" function="internal">
        <lane id=":2069873195_1_0" index="0" allow="pedestrian motorcycle moped bicycle" speed="8.01" length="3.81" shape="1580.31,606.26 1576.49,606.24"/>
    </edge>
    <edge id=":2069873195_2" function="internal">
        <lane id=":2069873195_2_0" index="0" disallow="tram rail_urban rail rail_electric rail_fast ship container cable_car subway aircraft wheelchair scooter drone" speed="3.65" length="1.44" shape="1580.31,606.26 1579.01,605.63"/>
    </edge>
    <edge id=":2069873195_9" function="internal">
        <lane id=":2069873195_9_0" index="0" allow="pedestrian motorcycle moped bicycle" speed="8.01" length="10.14" shape="1576.49,606.24 1573.57,605.01 1571.55,602.57 1570.42,598.93"/>
    </edge>
    <edge id=":2069873195_10" function="internal">
        <lane id=":2069873195_10_0" index="0" disallow="tram rail_urban rail rail_electric rail_fast ship container cable_car subway aircraft wheelchair scooter drone" speed="3.65" length="3.23" shape="1579.01,605.63 1578.50,604.89 1578.79,604.04 1579.87,603.09"/>
    </edge>
    <edge id=":2069873195_3" function="internal">
        <lane id=":2069873195_3_0" index="0" allow="pedestrian motorcycle moped bicycle" speed="6.51" length="8.88" shape="1573.58,598.42 1574.30,600.74 1575.59,602.29 1577.44,603.07 1579.87,603.09"/>
    </edge>
    <edge id=":2069873195_4" function="internal">
        <lane id=":2069873195_4_0" index="0" allow="pedestrian motorcycle moped bicycle" speed="8.11" length="13.90" shape="1573.58,598.42 1573.66,602.23 1572.54,605.21 1570.23,607.36 1566.72,608.70"/>
    </edge>
    <edge id=":2069873195_5" function="internal">
        <lane id=":2069873195_5_0" index="0" allow="pedestrian motorcycle moped bicycle" speed="3.65" length="4.67" shape="1573.58,598.42 1572.98,599.74 1572.26,600.26 1571.40,599.99 1570.42,598.93"/>
    </edge>
    <edge id=":2069873195_6" function="internal">
        <lane id=":2069873195_6_0" index="0" allow="pedestrian motorcycle moped bicycle" speed="6.63" length="8.98" shape="1566.02,605.59 1568.27,604.73 1569.76,603.33 1570.48,601.40 1570.42,598.93"/>
    </edge>
    <edge id=":2069873195_7" function="internal">
        <lane id=":2069873195_7_0" index="0" disallow="tram rail_urban rail rail_electric rail_fast ship container cable_car subway aircraft wheelchair scooter drone" speed="22.22" length="14.08" shape="1566.02,605.59 1579.87,603.09"/>
    </edge>
    <edge id=":2069873195_8" function="internal">
        <lane id=":2069873195_8_0" index="0" disallow="tram rail_urban rail rail_electric rail_fast ship container cable_car subway aircraft wheelchair scooter drone" speed="3.65" length="1.44" shape="1566.02,605.59 1567.36,606.10"/>
    </edge>
    <edge id=":2069873195_11" function="internal">
        <lane id=":2069873195_11_0" index="0" disallow="tram rail_urban rail rail_electric rail_fast ship container cable_car subway aircraft wheelchair scooter drone" speed="3.65" length="3.22" shape="1567.36,606.10 1567.93,606.79 1567.71,607.66 1566.72,608.70"/>
    </edge>
    <edge id=":2069873198_0" function="internal">
        <lane id=":2069873198_0_0" index="0" disallow="tram rail_urban rail rail_electric rail_fast ship container cable_car subway aircraft wheelchair scooter drone" speed="8.31" length="6.71" shape="1540.34,623.52 1539.28,625.33 1538.61,626.98 1538.33,628.46 1538.44,629.78"/>
    </edge>
    <edge id=":2069873198_1" function="internal">
        <lane id=":2069873198_1_0" index="0" disallow="tram rail_urban rail rail_electric rail_fast ship container cable_car subway aircraft wheelchair scooter drone" speed="22.22" length="7.04" shape="1535.80,623.15 1536.79,625.03 1537.42,626.35 1537.90,627.73 1538.44,629.78"/>
        <lane id=":2069873198_1_1" index="1" disallow="tram rail_urban rail rail_electric rail_fast ship container cable_car subway aircraft wheelchair scooter drone" speed="22.22" length="7.04" shape="1532.73,624.20 1533.70,626.01 1534.32,627.27 1534.80,628.59 1535.34,630.56"/>
    </edge>
    <edge id=":2069873203_0" function="internal">
        <lane id=":2069873203_0_0" index="0" disallow="tram rail_urban rail rail_electric rail_fast ship container cable_car subway aircraft wheelchair scooter drone" speed="22.22" length="12.41" shape="1532.03,665.73 1528.83,665.54 1526.23,665.49 1523.46,665.83 1519.76,666.79"/>
    </edge>
    <edge id=":2069873203_1" function="internal">
        <lane id=":2069873203_1_0" index="0" disallow="tram rail_urban rail rail_electric rail_fast ship container cable_car subway aircraft wheelchair scooter drone" speed="19.14" length="12.84" shape="1530.39,659.78 1527.63,662.45 1525.62,664.22 1523.34,665.52 1519.76,666.79"/>
        <lane id=":2069873203_1_1" index="1" disallow="tram rail_urban rail rail_electric rail_fast ship container cable_car subway aircraft wheelchair scooter drone" speed="15.67" length="12.84" shape="1529.01,656.58 1526.52,659.41 1524.61,661.23 1522.35,662.50 1518.83,663.74"/>
    </edge>
    <edge id=":2069873204_0" function="internal">
        <lane id=":2069873204_0_0" index="0" disallow="tram rail_urban rail rail_electric rail_fast ship container cable_car subway aircraft wheelchair scooter drone" speed="9.05" length="6.75" shape="1511.51,668.71 1509.64,669.14 1508.50,669.87 1507.56,670.99 1506.32,672.58"/>
    </edge>
    <edge id=":2069873204_1" function="internal">
        <lane id=":2069873204_1_0" index="0" disallow="tram rail_urban rail rail_electric rail_fast ship container cable_car subway aircraft wheelchair scooter drone" speed="22.22" length="6.88" shape="1511.51,668.71 1509.44,668.95 1508.01,669.02 1506.58,668.91 1504.52,668.61"/>
        <lane id=":2069873204_1_1" index="1" disallow="tram rail_urban rail rail_electric rail_fast ship container cable_car subway aircraft wheelchair scooter drone" speed="22.22" length="6.88" shape="1511.10,665.53 1509.12,665.76 1507.75,665.79 1506.38,665.65 1504.41,665.36"/>
    </edge>
    <edge id=":2069873209_0" function="internal">
        <lane id=":2069873209_0_0" index="0" disallow="tram rail_urban rail rail_electric rail_fast ship container cable_car subway aircraft wheelchair scooter drone" speed="3.66" length="4.64" shape="1480.79,767.84 1479.90,768.96 1479.07,769.29 1478.31,768.83 1477.62,767.57"/>
    </edge>
    <edge id=":327040335_0" function="internal">
        <lane id=":327040335_0_0" index="0" disallow="tram rail_urban rail rail_electric rail_fast ship container cable_car subway aircraft wheelchair scooter drone" speed="3.65" length="4.67" shape="4499.11,2729.00 4499.79,2730.28 4499.76,2731.17 4499.02,2731.68 4497.59,2731.81"/>
    </edge>
    <edge id=":327040393_0" function="internal">
        <lane id=":327040393_0_0" index="0" disallow="tram rail_urban rail rail_electric rail_fast ship container cable_car subway aircraft wheelchair scooter drone" speed="22.22" length="0.97" shape="1576.03,671.75 1575.18,671.29"/>
    </edge>
    <edge id=":327040393_1" function="internal">
        <lane id=":327040393_1_0" index="0" disallow="tram rail_urban rail rail_electric rail_fast ship container cable_car subway aircraft wheelchair scooter drone" speed="22.22" length="0.30" shape="1575.43,668.59 1575.74,668.56"/>
    </edge>
    <edge id=":4110251309_0" function="internal">
        <lane id=":4110251309_0_0" index="0" allow="pedestrian motorcycle moped bicycle" speed="3.65" length="4.67" shape="728.25,1512.13 726.90,1511.61 726.34,1510.92 726.55,1510.05 727.55,1509.01"/>
    </edge>
    <edge id=":486622560_0" function="internal">
        <lane id=":486622560_0_0" index="0" disallow="tram rail_urban rail rail_electric rail_fast ship container cable_car subway aircraft wheelchair scooter drone" speed="3.65" length="4.67" shape="-0.52,1.51 -1.40,0.36 -1.51,-0.52 -0.87,-1.15 0.52,-1.51"/>
    </edge>
    <edge id=":486622755_0" function="internal">
        <lane id=":486622755_0_0" index="0" disallow="tram rail_urban rail rail_electric rail_fast ship container cable_car subway aircraft wheelchair scooter drone" speed="22.22" length="0.23" shape="1440.19,619.70 1439.99,619.58"/>
    </edge>
    <edge id=":486622755_1" function="internal">
        <lane id=":486622755_1_0" index="0" disallow="tram rail_urban rail rail_electric rail_fast ship container cable_car subway aircraft wheelchair scooter drone" speed="22.22" length="0.10" shape="1442.66,617.81 1442.70,617.87"/>
    </edge>
    <edge id=":486622801_0" function="internal">
        <lane id=":486622801_0_0" index="0" disallow="tram rail_urban rail rail_electric rail_fast ship container cable_car subway aircraft wheelchair scooter drone" speed="12.77" length="12.25" shape="1539.30,641.75 1539.12,645.49 1539.38,648.23 1540.27,650.64 1541.96,653.34"/>
    </edge>
    <edge id=":486622801_1" function="internal">
        <lane id=":486622801_1_0" index="0" disallow="tram rail_urban rail rail_electric rail_fast ship container cable_car subway aircraft wheelchair scooter drone" speed="18.82" length="12.39" shape="1539.30,641.75 1538.92,645.42 1538.29,647.90 1537.17,650.22 1535.28,653.42"/>
        <lane id=":486622801_1_1" index="1" disallow="tram rail_urban rail rail_electric rail_fast ship container cable_car subway aircraft wheelchair scooter drone" speed="18.61" length="12.39" shape="1536.11,641.51 1535.69,645.08 1534.99,647.47 1533.81,649.70 1531.92,652.81"/>
    </edge>
    <edge id=":486622817_0" function="internal">
        <lane id=":486622817_0_0" index="0" disallow="tram rail_urban rail rail_electric rail_fast ship container cable_car subway aircraft wheelchair scooter drone" speed="17.34" length="12.53" shape="1522.28,610.06 1525.81,611.52 1528.57,612.08 1531.22,612.10 1534.45,611.92"/>
    </edge>
    <edge id=":486622817_1" function="internal">
        <lane id=":486622817_1_0" index="0" disallow="tram rail_urban rail rail_electric rail_fast ship container cable_car subway aircraft wheelchair scooter drone" speed="22.22" length="12.84" shape="1522.28,610.06 1525.68,611.81 1527.87,613.28 1529.77,615.12 1532.32,617.99"/>
        <lane id=":486622817_1_1" index="1" disallow="tram rail_urban rail rail_electric rail_fast ship container cable_car subway aircraft wheelchair scooter drone" speed="18.53" length="12.84" shape="1520.87,612.94 1524.23,614.64 1526.40,616.08 1528.23,617.94 1530.55,620.90"/>
    </edge>
    <edge id=":5169354077_0" function="internal">
        <lane id=":5169354077_0_0" index="0" disallow="tram rail_urban rail rail_electric rail_fast ship container cable_car subway aircraft wheelchair scooter drone" speed="13.09" length="11.91" shape="1485.49,616.86 1487.74,614.10 1488.87,611.75 1489.35,609.27 1489.66,606.07"/>
    </edge>
    <edge id=":5169354077_1" function="internal">
        <lane id=":5169354077_1_0" index="0" disallow="tram rail_urban rail rail_electric rail_fast ship container cable_car subway aircraft wheelchair scooter drone" speed="18.72" length="12.08" shape="1485.49,616.86 1487.96,614.18 1489.80,612.43 1491.92,611.10 1495.25,609.71"/>
        <lane id=":5169354077_1_1" index="1" disallow="tram rail_urban rail rail_electric rail_fast ship container cable_car subway aircraft wheelchair scooter drone" speed="18.39" length="12.08" shape="1487.82,619.05 1490.23,616.50 1492.04,614.87 1494.13,613.65 1497.37,612.33"/>
    </edge>
    <edge id=":5169354078_0" function="internal">
        <lane id=":5169354078_0_0" index="0" disallow="tram rail_urban rail rail_electric rail_fast ship container cable_car subway aircraft wheelchair scooter drone" speed="9.30" length="6.84" shape="1473.67,633.99 1475.46,633.01 1476.73,632.27 1477.67,631.26 1478.44,629.47"/>
    </edge>
    <edge id=":5169354078_1" function="internal">
        <lane id=":5169354078_1_0" index="0" disallow="tram rail_urban rail rail_electric rail_fast ship container cable_car subway aircraft wheelchair scooter drone" speed="22.22" length="6.95" shape="1477.33,636.42 1477.45,634.32 1477.57,632.88 1477.84,631.47 1478.44,629.47"/>
        <lane id=":5169354078_1_1" index="1" disallow="tram rail_urban rail rail_electric rail_fast ship container cable_car subway aircraft wheelchair scooter drone" speed="22.22" length="6.95" shape="1480.49,637.16 1480.59,635.13 1480.68,633.74 1480.92,632.38 1481.48,630.44"/>
    </edge>
    <edge id=":5169354081_0" function="internal">
        <lane id=":5169354081_0_0" index="0" disallow="tram rail_urban rail rail_electric rail_fast ship container cable_car subway aircraft wheelchair scooter drone" speed="10.04" length="6.97" shape="1479.68,649.80 1478.67,648.08 1477.62,647.16 1476.27,646.52 1474.37,645.65"/>
    </edge>
    <edge id=":5169354081_1" function="internal">
        <lane id=":5169354081_1_0" index="0" disallow="tram rail_urban rail rail_electric rail_fast ship container cable_car subway aircraft wheelchair scooter drone" speed="22.22" length="7.10" shape="1479.68,649.80 1478.82,647.85 1478.38,646.45 1478.09,645.00 1477.71,642.89"/>
        <lane id=":5169354081_1_1" index="1" disallow="tram rail_urban rail rail_electric rail_fast ship container cable_car subway aircraft wheelchair scooter drone" speed="22.22" length="7.10" shape="1482.58,648.44 1481.73,646.56 1481.26,645.22 1481.00,643.82 1480.77,641.76"/>
    </edge>
    <edge id=":5169354084_0" function="internal">
        <lane id=":5169354084_0_0" index="0" disallow="tram rail_urban rail rail_electric rail_fast ship container cable_car subway aircraft wheelchair scooter drone" speed="17.59" length="12.83" shape="1508.33,600.65 1510.70,603.36 1512.35,605.29 1514.28,606.78 1517.51,608.16"/>
        <lane id=":5169354084_0_1" index="1" disallow="tram rail_urban rail rail_electric rail_fast ship container cable_car subway aircraft wheelchair scooter drone" speed="18.62" length="12.83" shape="1506.21,603.06 1508.90,606.07 1510.82,608.16 1513.05,609.75 1516.70,611.26"/>
    </edge>
    <edge id=":5169354084_2" function="internal">
        <lane id=":5169354084_2_0" index="0" disallow="tram rail_urban rail rail_electric rail_fast ship container cable_car subway aircraft wheelchair scooter drone" speed="17.01" length="13.15" shape="1504.47,607.08 1508.35,606.42 1511.08,606.36 1513.76,606.93 1517.51,608.16"/>
        <lane id=":5169354084_2_1" index="1" disallow="tram rail_urban rail rail_electric rail_fast ship container cable_car subway aircraft wheelchair scooter drone" speed="16.75" length="13.15" shape="1504.04,610.42 1507.80,609.75 1510.45,609.62 1513.06,610.10 1516.70,611.26"/>
    </edge>
    <edge id=":5169354085_0" function="internal">
        <lane id=":5169354085_0_0" index="0" disallow="tram rail_urban rail rail_electric rail_fast ship container cable_car subway aircraft wheelchair scooter drone" speed="13.62" length="12.91" shape="1486.15,667.81 1486.13,664.17 1486.06,661.58 1485.35,659.22 1483.39,656.31"/>
        <lane id=":5169354085_0_1" index="1" disallow="tram rail_urban rail rail_electric rail_fast ship container cable_car subway aircraft wheelchair scooter drone" speed="16.16" length="12.91" shape="1489.32,667.16 1489.20,663.13 1488.90,660.31 1487.97,657.71 1485.90,654.31"/>
    </edge>
    <edge id=":5169354085_2" function="internal">
        <lane id=":5169354085_2_0" index="0" disallow="tram rail_urban rail rail_electric rail_fast ship container cable_car subway aircraft wheelchair scooter drone" speed="22.22" length="13.20" shape="1493.30,664.94 1489.94,662.91 1487.76,661.30 1485.88,659.35 1483.39,656.31"/>
        <lane id=":5169354085_2_1" index="1" disallow="tram rail_urban rail rail_electric rail_fast ship container cable_car subway aircraft wheelchair scooter drone" speed="16.08" length="13.20" shape="1495.69,662.61 1492.21,660.93 1489.96,659.45 1488.12,657.47 1485.90,654.31"/>
    </edge>
    <edge id=":9864607049_0" function="internal">
        <lane id=":9864607049_0_0" index="0" disallow="tram rail_urban rail rail_electric rail_fast ship container cable_car subway aircraft wheelchair scooter drone" speed="22.22" length="9.41" shape="1452.39,629.34 1454.57,631.07 1456.17,632.11 1457.87,633.00 1460.36,634.28"/>
    </edge>
    <edge id=":9864607049_1" function="internal">
        <lane id=":9864607049_1_0" index="0" allow="pedestrian motorcycle moped bicycle" speed="5.89" length="6.28" shape="1452.39,629.34 1457.48,633.02"/>
    </edge>
    <edge id=":9864607049_2" function="internal">
        <lane id=":9864607049_2_0" index="0" allow="pedestrian motorcycle moped bicycle" speed="5.68" length="6.45" shape="1454.71,631.42 1455.68,631.43 1457.39,632.35 1459.17,633.51 1460.36,634.28"/>
    </edge>
    <edge id=":9864607049_3" function="internal">
        <lane id=":9864607049_3_0" index="0" allow="pedestrian motorcycle moped bicycle" speed="3.65" length="4.67" shape="1454.71,631.42 1456.00,630.78 1456.90,630.84 1457.39,631.58 1457.48,633.02"/>
    </edge>
    <edge id=":9864607055_0" function="internal">
        <lane id=":9864607055_0_0" index="0" allow="pedestrian motorcycle moped bicycle" speed="5.81" length="9.28" shape="1460.41,638.80 1457.65,637.52 1455.58,637.43 1454.21,638.54 1453.53,640.84"/>
    </edge>
    <edge id=":9864607055_1" function="internal">
        <lane id=":9864607055_1_0" index="0" disallow="tram rail_urban rail rail_electric rail_fast ship container cable_car subway aircraft wheelchair scooter drone" speed="22.22" length="14.38" shape="1460.41,638.80 1457.28,636.90 1454.32,634.95 1451.52,632.80 1448.90,630.27"/>
    </edge>
    <edge id=":9864607055_2" function="internal">
        <lane id=":9864607055_2_0" index="0" allow="pedestrian motorcycle moped bicycle" speed="6.85" length="9.98" shape="1460.41,638.80 1457.27,636.68 1455.26,634.77 1454.37,633.07 1454.61,631.59"/>
    </edge>
    <edge id=":9864607055_3" function="internal">
        <lane id=":9864607055_3_0" index="0" allow="pedestrian motorcycle moped bicycle" speed="5.56" length="8.69" shape="1457.38,633.20 1455.94,635.35 1454.83,636.81 1454.03,638.37 1453.53,640.84"/>
    </edge>
    <edge id=":9864607055_4" function="internal">
        <lane id=":9864607055_4_0" index="0" allow="pedestrian motorcycle moped bicycle" speed="6.33" length="10.45" shape="1457.38,633.20 1456.00,634.47 1454.13,634.40 1451.76,633.01 1448.90,630.27"/>
    </edge>
    <edge id=":9864607055_5" function="internal">
        <lane id=":9864607055_5_0" index="0" allow="pedestrian motorcycle moped bicycle" speed="3.65" length="4.67" shape="1457.38,633.20 1456.08,633.83 1455.19,633.78 1454.70,633.03 1454.61,631.59"/>
    </edge>
    <edge id=":9864607055_6" function="internal">
        <lane id=":9864607055_6_0" index="0" allow="pedestrian motorcycle moped bicycle" speed="8.24" length="9.43" shape="1450.68,639.04 1451.22,636.65 1451.10,634.38 1450.33,632.26 1448.90,630.27"/>
    </edge>
    <edge id=":9864607055_7" function="internal">
        <lane id=":9864607055_7_0" index="0" allow="pedestrian motorcycle moped bicycle" speed="5.56" length="8.45" shape="1450.68,639.04 1451.59,636.71 1452.37,635.19 1453.30,633.73 1454.61,631.59"/>
    </edge>
    <edge id=":9864607055_8" function="internal">
        <lane id=":9864607055_8_0" index="0" allow="pedestrian motorcycle moped bicycle" speed="3.82" length="4.91" shape="1450.68,639.04 1452.07,638.43 1453.00,638.52 1453.49,639.32 1453.53,640.84"/>
    </edge>
    <edge id=":9949625017_0" function="internal">
        <lane id=":9949625017_0_0" index="0" disallow="tram rail_urban rail rail_electric rail_fast ship container cable_car subway aircraft wheelchair scooter drone" speed="3.65" length="4.67" shape="1723.15,466.32 1724.52,465.86 1725.39,466.03 1725.78,466.83 1725.69,468.27"/>
    </edge>

    <edge id="-1085850657" from="2069873195" to="9949625017" priority="11" type="highway.secondary" shape="1573.12,605.63 1595.88,602.51 1602.11,601.16 1610.78,597.99 1618.33,594.09 1625.81,588.60 1634.18,581.32 1642.32,573.84 1663.46,546.98 1704.23,493.54 1724.42,467.30">
        <lane id="-1085850657_0" index="0" disallow="tram rail_urban rail rail_electric rail_fast ship container cable_car subway aircraft wheelchair scooter drone" speed="22.22" length="204.73" shape="1579.87,603.09 1595.60,600.93 1601.66,599.62 1610.14,596.52 1617.48,592.73 1624.81,587.35 1633.11,580.13 1641.14,572.74 1662.19,546.00 1702.96,492.57 1723.15,466.32"/>
        <param key="ref" value="D 928"/>
    </edge>
    <edge id="-196689357" from="2069873166" to="2069873195" priority="1" type="highway.track" shape="1338.30,276.74 1336.77,283.15 1329.36,292.17 1323.32,300.18 1324.17,311.44 1421.93,495.99 1429.37,510.05 1501.00,563.85 1518.73,569.96 1545.73,566.90 1560.56,572.23 1569.33,582.01 1573.12,605.63">
        <lane id="-196689357_0" index="0" allow="pedestrian motorcycle moped bicycle" speed="5.56" length="444.97" shape="1339.86,277.11 1338.24,283.88 1330.62,293.15 1324.96,300.66 1325.74,310.98 1423.34,495.24 1430.61,508.99 1501.76,562.42 1518.91,568.33 1545.92,565.27 1561.49,570.86 1570.83,581.29 1573.58,598.42"/>
    </edge>
    <edge id="-29699581" from="327040393" to="327040335" priority="10" type="highway.tertiary" shape="1577.91,669.97 1589.79,668.85 1606.76,667.14 1614.27,666.75 1622.11,666.77 1629.61,667.73 1637.39,669.95 1644.25,672.92 1652.15,676.93 1664.02,684.54 1765.97,758.36 1793.83,778.90 1796.07,780.54 2545.78,1331.00 2667.55,1420.83 2802.00,1519.22 3062.43,1710.50 3110.98,1746.16 3113.59,1748.08 3125.02,1756.49 3229.75,1833.51 3234.18,1836.74 3512.09,2039.44 3515.02,2041.59 3769.86,2227.74 3828.84,2270.05 3838.39,2277.99 3846.54,2286.22 3855.75,2297.18 3865.65,2311.82 3887.23,2345.24 3902.10,2366.32 3914.31,2381.31 3930.21,2397.85 4156.58,2622.07 4164.36,2626.89 4173.75,2628.43 4267.11,2629.53 4279.64,2633.20 4335.33,2661.14 4370.69,2667.71 4412.92,2682.34 4472.36,2716.32 4498.35,2730.41">
        <lane id="-29699581_0" index="0" disallow="tram rail_urban rail rail_electric rail_fast ship container cable_car subway aircraft wheelchair scooter drone" speed="22.22" length="3625.30" shape="1575.74,668.56 1589.64,667.26 1606.64,665.55 1614.22,665.15 1622.21,665.17 1629.93,666.16 1637.93,668.44 1644.93,671.47 1652.95,675.54 1664.92,683.22 1766.91,757.06 1794.78,777.61 1797.02,779.25 2546.72,1329.72 2668.50,1419.54 2802.95,1517.93 3063.38,1709.22 3111.93,1744.87 3114.53,1746.79 3125.97,1755.20 3230.70,1832.22 3235.12,1835.45 3513.03,2038.15 3515.96,2040.30 3770.79,2226.45 3829.82,2268.78 3839.47,2276.81 3847.73,2285.14 3857.03,2296.21 3866.99,2310.94 3888.56,2344.34 3903.38,2365.35 3915.51,2380.24 3931.35,2396.73 4157.58,2620.81 4164.93,2625.36 4173.89,2626.83 4267.35,2627.93 4280.23,2631.71 4335.85,2659.61 4371.10,2666.16 4413.58,2680.87 4473.14,2714.92 4499.11,2729.00"/>
        <param key="ref" value="D 79"/>
    </edge>
    <edge id="-40323932" from="486622755" to="486622560" priority="10" type="highway.tertiary" shape="1441.17,618.46 1439.88,616.51 1437.96,613.16 1429.73,594.01 1420.81,565.71 1405.59,530.78 1355.33,437.67 1343.37,415.79 1317.26,376.46 1300.11,354.73 1275.45,326.66 1252.96,307.21 1238.56,297.96 1224.21,289.39 1205.53,281.00 1190.32,275.90 1164.12,270.10 1138.54,265.68 1094.85,259.64 1043.22,253.10 1016.96,250.83 928.01,244.85 890.08,241.29 829.30,234.62 799.06,230.88 774.05,227.18 754.04,223.30 733.79,217.97 694.93,207.75 676.62,204.54 659.53,203.19 633.10,202.22 612.42,201.40 595.89,200.08 581.01,198.25 566.33,195.30 543.35,189.32 528.75,183.95 509.68,176.12 489.83,166.70 465.35,154.07 451.55,147.37 437.95,141.93 422.41,136.45 403.62,130.71 367.02,121.66 325.49,111.51 303.49,105.72 288.83,101.42 272.34,95.64 255.71,89.70 208.50,72.33 116.56,40.45 0.00,0.00">
        <lane id="-40323932_0" index="0" disallow="tram rail_urban rail rail_electric rail_fast ship container cable_car subway aircraft wheelchair scooter drone" speed="22.22" length="1667.66" shape="1439.99,619.58 1438.51,617.35 1436.53,613.88 1428.22,594.57 1419.31,566.27 1404.15,531.48 1353.92,438.43 1342.00,416.62 1315.96,377.40 1298.88,355.75 1274.32,327.80 1251.99,308.49 1237.72,299.32 1223.47,290.81 1204.95,282.49 1189.89,277.45 1163.81,271.67 1138.29,267.26 1094.64,261.22 1043.05,254.69 1016.83,252.43 927.88,246.44 889.92,242.88 829.11,236.21 798.85,232.46 773.78,228.76 753.68,224.86 733.38,219.52 694.59,209.32 676.42,206.13 659.44,204.79 633.04,203.82 612.33,202.99 595.73,201.67 580.75,199.83 565.97,196.86 542.87,190.84 528.17,185.44 509.03,177.59 489.12,168.14 464.64,155.50 450.90,148.84 437.38,143.42 421.91,137.97 403.19,132.25 366.64,123.22 325.09,113.06 303.06,107.26 288.34,102.95 271.80,97.15 255.16,91.21 207.97,73.84 116.04,41.96 -0.52,1.51"/>
        <param key="ref" value="D 79"/>
    </edge>
    <edge id="-409130221#0" from="9864607055" to="4110251309" priority="1" type="highway.track" shape="1454.38,635.16 1452.98,637.31 1452.00,640.14 1450.75,650.89 1456.22,667.03 1464.34,691.73 1465.87,706.16 1465.47,773.51 1456.36,849.36 1450.27,864.27 1439.24,876.31 1371.10,943.47 1289.96,1021.32 1232.76,1068.63 1097.56,1177.76 1011.12,1269.34 970.35,1315.87 945.46,1347.59 907.31,1383.36 874.10,1406.59 740.79,1507.69 727.90,1510.57">
        <lane id="-409130221#0_0" index="0" allow="pedestrian motorcycle moped bicycle" speed="5.56" length="1203.58" shape="1453.53,640.84 1452.38,650.72 1457.74,666.52 1465.91,691.39 1467.47,706.08 1467.07,773.61 1457.92,849.77 1451.64,865.14 1440.40,877.42 1372.22,944.61 1291.03,1022.51 1233.77,1069.87 1098.65,1178.93 1012.30,1270.41 971.58,1316.89 946.64,1348.67 908.32,1384.61 875.04,1407.88 741.48,1509.17 728.25,1512.13"/>
    </edge>
    <edge id="-409130221#1" from="9864607049" to="9864607055" priority="1" type="highway.track">
        <lane id="-409130221#1_0" index="0" allow="pedestrian motorcycle moped bicycle" speed="5.56" length="0.20" shape="1457.48,633.02 1457.38,633.20"/>
    </edge>
    <edge id="1075603015" from="327040393" to="2069873203" priority="10" type="highway.tertiary" spreadType="center" shape="1578.16,671.55 1571.49,670.96 1565.52,671.32 1560.55,671.22 1557.54,670.83 1554.39,670.28 1548.94,668.88 1541.68,666.71 1535.45,665.91 1527.76,665.52 1518.19,665.60">
        <lane id="1075603015_0" index="0" disallow="tram rail_urban rail rail_electric rail_fast ship container cable_car subway aircraft wheelchair scooter drone" speed="22.22" length="43.80" shape="1575.18,671.29 1571.49,670.96 1565.52,671.32 1560.55,671.22 1557.54,670.83 1554.39,670.28 1548.94,668.88 1541.68,666.71 1535.45,665.91 1532.03,665.73"/>
        <param key="ref" value="D 79"/>
    </edge>
    <edge id="1085850657" from="9949625017" to="2069873195" priority="11" type="highway.secondary" shape="1724.42,467.30 1704.23,493.54 1663.46,546.98 1642.32,573.84 1634.18,581.32 1625.81,588.60 1618.33,594.09 1610.78,597.99 1602.11,601.16 1595.88,602.51 1573.12,605.63">
        <lane id="1085850657_0" index="0" disallow="tram rail_urban rail rail_electric rail_fast ship container cable_car subway aircraft wheelchair scooter drone" speed="22.22" length="207.22" shape="1725.69,468.27 1705.50,494.52 1664.72,547.96 1643.50,574.93 1635.24,582.51 1626.81,589.85 1619.18,595.45 1611.43,599.46 1602.56,602.70 1596.16,604.08 1580.31,606.26"/>
        <param key="ref" value="D 928"/>
    </edge>