<?xml version="1.0" encoding="UTF-8"?>

<!-- generated on 2024-09-03 01:37:50.569220 by randomTrips.py UNKNOWN
<configuration>
    <net-file value="train_files/roundabout/middle/outputs/map(36)_dict/map(36)/map(36).net.xml"/>
    <output-trip-file value="train_files/roundabout/middle/outputs/map(36)_dict/map(36)/map(36).trips.xml"/>
    <fringe-factor value="max"/>
    <validate value="True"/>
    <period value="1.2"/>
</configuration>
-->

<!-- generated on 2024-09-03 01:37:50 by Eclipse SUMO duarouter Version 1.20.0
<configuration xmlns:xsi="http://www.w3.org/2001/XMLSchema-instance" xsi:noNamespaceSchemaLocation="http://sumo.dlr.de/xsd/duarouterConfiguration.xsd">

    <input>
        <net-file value="train_files/roundabout/middle/outputs/map(36)_dict/map(36)/map(36).net.xml"/>
        <route-files value="train_files/roundabout/middle/outputs/map(36)_dict/map(36)/map(36).trips.xml"/>
    </input>

    <output>
        <output-file value="train_files/roundabout/middle/outputs/map(36)_dict/map(36)/map(36).trips.xml.tmp"/>
        <alternatives-output value="NUL"/>
        <write-trips value="true"/>
    </output>

    <time>
        <begin value="0"/>
        <end value="3600"/>
    </time>

    <report>
        <no-warnings value="true"/>
        <ignore-errors value="true"/>
        <no-step-log value="true"/>
    </report>

</configuration>
-->

<routes xmlns:xsi="http://www.w3.org/2001/XMLSchema-instance" xsi:noNamespaceSchemaLocation="http://sumo.dlr.de/xsd/routes_file.xsd">
    <trip id="1" depart="1.20" from="1056276226#0" to="-97637311#0"/>
    <trip id="5" depart="6.00" from="1056276226#0" to="902979328#1"/>
    <trip id="7" depart="8.40" from="744825961#0" to="902979328#1"/>
    <trip id="8" depart="9.60" from="1056276226#0" to="902979328#1"/>
    <trip id="9" depart="10.80" from="744825964#0" to="-744825964#0"/>
    <trip id="13" depart="15.60" from="-744825973" to="-744825964#0"/>
    <trip id="14" depart="16.80" from="97637311#0" to="902979328#1"/>
    <trip id="16" depart="19.20" from="744825961#0" to="984589551#2"/>
    <trip id="17" depart="20.40" from="624410090" to="902979328#1"/>
    <trip id="19" depart="22.80" from="97637311#0" to="902979328#1"/>
    <trip id="20" depart="24.00" from="744825964#0" to="-744825964#0"/>
    <trip id="21" depart="25.20" from="1056276226#0" to="-97637311#0"/>
    <trip id="25" depart="30.00" from="624410090" to="-97637311#0"/>
    <trip id="26" depart="31.20" from="1056276226#0" to="984589551#2"/>
    <trip id="27" depart="32.40" from="744825961#0" to="902979328#1"/>
    <trip id="28" depart="33.60" from="1056276226#0" to="946621531"/>
    <trip id="29" depart="34.80" from="-744825973" to="744825973"/>
    <trip id="30" depart="36.00" from="97637311#0" to="902979328#1"/>
    <trip id="31" depart="37.20" from="744825961#0" to="946621531"/>
    <trip id="32" depart="38.40" from="97637311#0" to="946621531"/>
    <trip id="34" depart="40.80" from="1056276226#0" to="-97637311#0"/>
    <trip id="35" depart="42.00" from="1056276226#0" to="984589551#2"/>
    <trip id="36" depart="43.20" from="97637311#0" to="-97637311#0"/>
    <trip id="39" depart="46.80" from="1056276226#0" to="-97637311#0"/>
    <trip id="40" depart="48.00" from="744825961#0" to="-97637311#0"/>
    <trip id="41" depart="49.20" from="744825961#0" to="984589551#2"/>
    <trip id="42" depart="50.40" from="624410090" to="-97637311#0"/>
    <trip id="43" depart="51.60" from="97637311#0" to="902979328#1"/>
    <trip id="44" depart="52.80" from="-744825973" to="-744825964#0"/>
    <trip id="46" depart="55.20" from="744825964#0" to="744825973"/>
    <trip id="47" depart="56.40" from="-744825973" to="744825973"/>
    <trip id="48" depart="57.60" from="97637311#0" to="902979328#1"/>
    <trip id="49" depart="58.80" from="97637311#0" to="984589551#2"/>
    <trip id="52" depart="62.40" from="1056276226#0" to="902979328#1"/>
    <trip id="53" depart="63.60" from="-744825973" to="744825973"/>
    <trip id="54" depart="64.80" from="624410090" to="984589551#2"/>
    <trip id="55" depart="66.00" from="97637311#0" to="-97637311#0"/>
    <trip id="56" depart="67.20" from="744825961#0" to="-97637311#0"/>
    <trip id="57" depart="68.40" from="97637311#0" to="984589551#2"/>
    <trip id="58" depart="69.60" from="1056276226#0" to="902979328#1"/>
    <trip id="64" depart="76.80" from="97637311#0" to="946621531"/>
    <trip id="66" depart="79.20" from="97637311#0" to="984589551#2"/>
    <trip id="67" depart="80.40" from="-744825973" to="744825973"/>
    <trip id="69" depart="82.80" from="744825964#0" to="-744825964#0"/>
    <trip id="70" depart="84.00" from="624410090" to="902979328#1"/>
    <trip id="71" depart="85.20" from="1056276226#0" to="984589551#2"/>
    <trip id="72" depart="86.40" from="624410090" to="-97637311#0"/>
    <trip id="73" depart="87.60" from="744825961#0" to="946621531"/>
    <trip id="74" depart="88.80" from="1056276226#0" to="-97637311#0"/>
    <trip id="75" depart="90.00" from="97637311#0" to="902979328#1"/>
    <trip id="76" depart="91.20" from="624410090" to="902979328#1"/>
    <trip id="78" depart="93.60" from="624410090" to="902979328#1"/>
    <trip id="79" depart="94.80" from="1056276226#0" to="-97637311#0"/>
    <trip id="81" depart="97.20" from="1056276226#0" to="984589551#2"/>
    <trip id="83" depart="99.60" from="1056276226#0" to="946621531"/>
    <trip id="85" depart="102.00" from="97637311#0" to="902979328#1"/>
    <trip id="86" depart="103.20" from="624410090" to="946621531"/>
    <trip id="88" depart="105.60" from="-744825973" to="744825973"/>
    <trip id="93" depart="111.60" from="97637311#0" to="-97637311#0"/>
    <trip id="95" depart="114.00" from="624410090" to="-97637311#0"/>
    <trip id="96" depart="115.20" from="1056276226#0" to="984589551#2"/>
    <trip id="97" depart="116.40" from="624410090" to="984589551#2"/>
    <trip id="99" depart="118.80" from="97637311#0" to="984589551#2"/>
    <trip id="100" depart="120.00" from="97637311#0" to="984589551#2"/>
    <trip id="102" depart="122.40" from="624410090" to="-97637311#0"/>
    <trip id="104" depart="124.80" from="624410090" to="984589551#2"/>
    <trip id="105" depart="126.00" from="1056276226#0" to="946621531"/>
    <trip id="107" depart="128.40" from="97637311#0" to="984589551#2"/>
    <trip id="108" depart="129.60" from="744825961#0" to="946621531"/>
    <trip id="110" depart="132.00" from="97637311#0" to="902979328#1"/>
    <trip id="111" depart="133.20" from="744825961#0" to="946621531"/>
    <trip id="113" depart="135.60" from="744825961#0" to="984589551#2"/>
    <trip id="116" depart="139.20" from="744825961#0" to="946621531"/>
    <trip id="118" depart="141.60" from="97637311#0" to="-97637311#0"/>
    <trip id="119" depart="142.80" from="744825961#0" to="902979328#1"/>
    <trip id="120" depart="144.00" from="624410090" to="902979328#1"/>
    <trip id="121" depart="145.20" from="744825961#0" to="984589551#2"/>
    <trip id="122" depart="146.40" from="1056276226#0" to="946621531"/>
    <trip id="125" depart="150.00" from="1056276226#0" to="946621531"/>
    <trip id="126" depart="151.20" from="-744825973" to="744825973"/>
    <trip id="127" depart="152.40" from="97637311#0" to="984589551#2"/>
    <trip id="129" depart="154.80" from="1056276226#0" to="984589551#2"/>
    <trip id="130" depart="156.00" from="97637311#0" to="984589551#2"/>
    <trip id="132" depart="158.40" from="97637311#0" to="946621531"/>
    <trip id="133" depart="159.60" from="744825961#0" to="984589551#2"/>
    <trip id="136" depart="163.20" from="744825961#0" to="984589551#2"/>
    <trip id="137" depart="164.40" from="-744825973" to="-744825964#0"/>
    <trip id="139" depart="166.80" from="1056276226#0" to="902979328#1"/>
    <trip id="141" depart="169.20" from="744825961#0" to="-97637311#0"/>
    <trip id="142" depart="170.40" from="624410090" to="984589551#2"/>
    <trip id="144" depart="172.80" from="624410090" to="-97637311#0"/>
    <trip id="146" depart="175.20" from="744825961#0" to="-97637311#0"/>
    <trip id="150" depart="180.00" from="97637311#0" to="902979328#1"/>
    <trip id="151" depart="181.20" from="97637311#0" to="902979328#1"/>
    <trip id="152" depart="182.40" from="-744825973" to="-744825964#0"/>
    <trip id="153" depart="183.60" from="1056276226#0" to="984589551#2"/>
    <trip id="155" depart="186.00" from="97637311#0" to="-97637311#0"/>
    <trip id="158" depart="189.60" from="624410090" to="902979328#1"/>
    <trip id="160" depart="192.00" from="97637311#0" to="984589551#2"/>
    <trip id="163" depart="195.60" from="1056276226#0" to="984589551#2"/>
    <trip id="166" depart="199.20" from="744825964#0" to="-744825964#0"/>
    <trip id="167" depart="200.40" from="97637311#0" to="984589551#2"/>
    <trip id="168" depart="201.60" from="1056276226#0" to="946621531"/>
    <trip id="169" depart="202.80" from="624410090" to="-97637311#0"/>
    <trip id="172" depart="206.40" from="1056276226#0" to="984589551#2"/>
    <trip id="173" depart="207.60" from="97637311#0" to="-97637311#0"/>
    <trip id="175" depart="210.00" from="97637311#0" to="902979328#1"/>
    <trip id="177" depart="212.40" from="97637311#0" to="-97637311#0"/>
    <trip id="178" depart="213.60" from="97637311#0" to="-97637311#0"/>
    <trip id="179" depart="214.80" from="-744825973" to="744825973"/>
    <trip id="181" depart="217.20" from="744825961#0" to="902979328#1"/>
    <trip id="182" depart="218.40" from="624410090" to="902979328#1"/>
    <trip id="183" depart="219.60" from="1056276226#0" to="946621531"/>
    <trip id="185" depart="222.00" from="744825961#0" to="946621531"/>
    <trip id="188" depart="225.60" from="744825961#0" to="-97637311#0"/>
    <trip id="189" depart="226.80" from="1056276226#0" to="984589551#2"/>
    <trip id="192" depart="230.40" from="624410090" to="-97637311#0"/>
    <trip id="193" depart="231.60" from="-744825973" to="744825973"/>
    <trip id="194" depart="232.80" from="97637311#0" to="946621531"/>
    <trip id="195" depart="234.00" from="97637311#0" to="902979328#1"/>
    <trip id="196" depart="235.20" from="1056276226#0" to="902979328#1"/>
    <trip id="198" depart="237.60" from="624410090" to="902979328#1"/>
    <trip id="200" depart="240.00" from="624410090" to="-97637311#0"/>
    <trip id="201" depart="241.20" from="624410090" to="984589551#2"/>
    <trip id="210" depart="252.00" from="624410090" to="902979328#1"/>
    <trip id="211" depart="253.20" from="1056276226#0" to="946621531"/>
    <trip id="212" depart="254.40" from="624410090" to="-97637311#0"/>
    <trip id="215" depart="258.00" from="-744825973" to="744825973"/>
    <trip id="216" depart="259.20" from="1056276226#0" to="984589551#2"/>
    <trip id="218" depart="261.60" from="1056276226#0" to="984589551#2"/>
    <trip id="219" depart="262.80" from="624410090" to="946621531"/>
    <trip id="221" depart="265.20" from="744825961#0" to="984589551#2"/>
    <trip id="222" depart="266.40" from="97637311#0" to="902979328#1"/>
    <trip id="225" depart="270.00" from="97637311#0" to="946621531"/>
    <trip id="226" depart="271.20" from="624410090" to="-97637311#0"/>
    <trip id="227" depart="272.40" from="1056276226#0" to="902979328#1"/>
    <trip id="229" depart="274.80" from="744825961#0" to="-97637311#0"/>
    <trip id="231" depart="277.20" from="1056276226#0" to="-97637311#0"/>
    <trip id="233" depart="279.60" from="1056276226#0" to="946621531"/>
    <trip id="234" depart="280.80" from="744825964#0" to="-744825964#0"/>
    <trip id="235" depart="282.00" from="624410090" to="902979328#1"/>
    <trip id="236" depart="283.20" from="624410090" to="-97637311#0"/>
    <trip id="237" depart="284.40" from="624410090" to="984589551#2"/>
    <trip id="238" depart="285.60" from="744825961#0" to="946621531"/>
    <trip id="239" depart="286.80" from="97637311#0" to="946621531"/>
    <trip id="241" depart="289.20" from="624410090" to="946621531"/>
    <trip id="242" depart="290.40" from="97637311#0" to="984589551#2"/>
    <trip id="243" depart="291.60" from="624410090" to="946621531"/>
    <trip id="244" depart="292.80" from="744825961#0" to="902979328#1"/>
    <trip id="245" depart="294.00" from="1056276226#0" to="-97637311#0"/>
    <trip id="247" depart="296.40" from="624410090" to="946621531"/>
    <trip id="251" depart="301.20" from="624410090" to="902979328#1"/>
    <trip id="253" depart="303.60" from="-744825973" to="744825973"/>
    <trip id="254" depart="304.80" from="-744825973" to="744825973"/>
    <trip id="255" depart="306.00" from="1056276226#0" to="-97637311#0"/>
    <trip id="256" depart="307.20" from="744825964#0" to="744825973"/>
    <trip id="261" depart="313.20" from="744825961#0" to="946621531"/>
    <trip id="262" depart="314.40" from="744825961#0" to="946621531"/>
    <trip id="263" depart="315.60" from="97637311#0" to="-97637311#0"/>
    <trip id="264" depart="316.80" from="-744825973" to="-744825964#0"/>
    <trip id="266" depart="319.20" from="744825961#0" to="-97637311#0"/>
    <trip id="268" depart="321.60" from="1056276226#0" to="902979328#1"/>
    <trip id="269" depart="322.80" from="744825964#0" to="-744825964#0"/>
    <trip id="271" depart="325.20" from="-744825973" to="-744825964#0"/>
    <trip id="272" depart="326.40" from="1056276226#0" to="946621531"/>
    <trip id="274" depart="328.80" from="744825964#0" to="-744825964#0"/>
    <trip id="277" depart="332.40" from="97637311#0" to="902979328#1"/>
    <trip id="279" depart="334.80" from="744825964#0" to="744825973"/>
    <trip id="282" depart="338.40" from="97637311#0" to="946621531"/>
    <trip id="284" depart="340.80" from="744825961#0" to="946621531"/>
    <trip id="285" depart="342.00" from="744825964#0" to="744825973"/>
    <trip id="287" depart="344.40" from="1056276226#0" to="946621531"/>
    <trip id="289" depart="346.80" from="624410090" to="946621531"/>
    <trip id="290" depart="348.00" from="1056276226#0" to="984589551#2"/>
    <trip id="291" depart="349.20" from="744825964#0" to="-744825964#0"/>
    <trip id="292" depart="350.40" from="97637311#0" to="-97637311#0"/>
    <trip id="293" depart="351.60" from="624410090" to="902979328#1"/>
    <trip id="295" depart="354.00" from="97637311#0" to="-97637311#0"/>
    <trip id="296" depart="355.20" from="1056276226#0" to="946621531"/>
    <trip id="297" depart="356.40" from="624410090" to="984589551#2"/>
    <trip id="301" depart="361.20" from="624410090" to="946621531"/>
    <trip id="303" depart="363.60" from="624410090" to="946621531"/>
    <trip id="312" depart="374.40" from="744825961#0" to="946621531"/>
    <trip id="313" depart="375.60" from="1056276226#0" to="-97637311#0"/>
    <trip id="314" depart="376.80" from="624410090" to="946621531"/>
    <trip id="315" depart="378.00" from="97637311#0" to="902979328#1"/>
    <trip id="317" depart="380.40" from="1056276226#0" to="-97637311#0"/>
    <trip id="319" depart="382.80" from="744825961#0" to="-97637311#0"/>
    <trip id="320" depart="384.00" from="97637311#0" to="902979328#1"/>
    <trip id="321" depart="385.20" from="744825964#0" to="-744825964#0"/>
    <trip id="323" depart="387.60" from="97637311#0" to="902979328#1"/>
    <trip id="327" depart="392.40" from="744825964#0" to="744825973"/>
    <trip id="329" depart="394.80" from="-744825973" to="-744825964#0"/>
    <trip id="330" depart="396.00" from="744825961#0" to="-97637311#0"/>
    <trip id="335" depart="402.00" from="624410090" to="984589551#2"/>
    <trip id="336" depart="403.20" from="97637311#0" to="-97637311#0"/>
    <trip id="337" depart="404.40" from="744825961#0" to="902979328#1"/>
    <trip id="339" depart="406.80" from="1056276226#0" to="-97637311#0"/>
    <trip id="342" depart="410.40" from="-744825973" to="744825973"/>
    <trip id="343" depart="411.60" from="744825961#0" to="-97637311#0"/>
    <trip id="344" depart="412.80" from="1056276226#0" to="946621531"/>
    <trip id="345" depart="414.00" from="744825964#0" to="744825973"/>
    <trip id="348" depart="417.60" from="744825961#0" to="984589551#2"/>
    <trip id="349" depart="418.80" from="624410090" to="902979328#1"/>
    <trip id="350" depart="420.00" from="744825961#0" to="984589551#2"/>
    <trip id="351" depart="421.20" from="744825964#0" to="-744825964#0"/>
    <trip id="356" depart="427.20" from="97637311#0" to="902979328#1"/>
    <trip id="358" depart="429.60" from="-744825973" to="744825973"/>
    <trip id="359" depart="430.80" from="1056276226#0" to="-97637311#0"/>
    <trip id="361" depart="433.20" from="97637311#0" to="902979328#1"/>
    <trip id="362" depart="434.40" from="97637311#0" to="984589551#2"/>
    <trip id="365" depart="438.00" from="624410090" to="902979328#1"/>
    <trip id="366" depart="439.20" from="97637311#0" to="-97637311#0"/>
    <trip id="367" depart="440.40" from="744825961#0" to="902979328#1"/>
    <trip id="369" depart="442.80" from="624410090" to="-97637311#0"/>
    <trip id="371" depart="445.20" from="1056276226#0" to="946621531"/>
    <trip id="372" depart="446.40" from="1056276226#0" to="984589551#2"/>
    <trip id="374" depart="448.80" from="624410090" to="-97637311#0"/>
    <trip id="375" depart="450.00" from="1056276226#0" to="984589551#2"/>
    <trip id="376" depart="451.20" from="624410090" to="902979328#1"/>
    <trip id="377" depart="452.40" from="97637311#0" to="902979328#1"/>
    <trip id="382" depart="458.40" from="744825961#0" to="984589551#2"/>
    <trip id="383" depart="459.60" from="624410090" to="946621531"/>
    <trip id="385" depart="462.00" from="744825961#0" to="-97637311#0"/>
    <trip id="388" depart="465.60" from="97637311#0" to="984589551#2"/>
    <trip id="390" depart="468.00" from="744825964#0" to="744825973"/>
    <trip id="392" depart="470.40" from="1056276226#0" to="984589551#2"/>
    <trip id="393" depart="471.60" from="97637311#0" to="-97637311#0"/>
    <trip id="395" depart="474.00" from="97637311#0" to="902979328#1"/>
    <trip id="396" depart="475.20" from="97637311#0" to="984589551#2"/>
    <trip id="397" depart="476.40" from="1056276226#0" to="946621531"/>
    <trip id="398" depart="477.60" from="624410090" to="984589551#2"/>
    <trip id="399" depart="478.80" from="744825961#0" to="946621531"/>
    <trip id="400" depart="480.00" from="1056276226#0" to="-97637311#0"/>
    <trip id="401" depart="481.20" from="744825961#0" to="984589551#2"/>
    <trip id="404" depart="484.80" from="744825961#0" to="902979328#1"/>
    <trip id="405" depart="486.00" from="624410090" to="-97637311#0"/>
    <trip id="406" depart="487.20" from="1056276226#0" to="946621531"/>
    <trip id="407" depart="488.40" from="744825961#0" to="-97637311#0"/>
    <trip id="408" depart="489.60" from="744825964#0" to="-744825964#0"/>
    <trip id="410" depart="492.00" from="744825964#0" to="744825973"/>
    <trip id="411" depart="493.20" from="744825961#0" to="946621531"/>
    <trip id="414" depart="496.80" from="744825961#0" to="984589551#2"/>
    <trip id="417" depart="500.40" from="744825964#0" to="744825973"/>
    <trip id="419" depart="502.80" from="624410090" to="984589551#2"/>
    <trip id="420" depart="504.00" from="624410090" to="946621531"/>
    <trip id="421" depart="505.20" from="744825961#0" to="984589551#2"/>
    <trip id="422" depart="506.40" from="97637311#0" to="984589551#2"/>
    <trip id="423" depart="507.60" from="624410090" to="-97637311#0"/>
    <trip id="427" depart="512.40" from="97637311#0" to="984589551#2"/>
    <trip id="428" depart="513.60" from="744825964#0" to="744825973"/>
    <trip id="435" depart="522.00" from="744825961#0" to="946621531"/>
    <trip id="437" depart="524.40" from="97637311#0" to="902979328#1"/>
    <trip id="438" depart="525.60" from="1056276226#0" to="984589551#2"/>
    <trip id="439" depart="526.80" from="-744825973" to="744825973"/>
    <trip id="440" depart="528.00" from="1056276226#0" to="-97637311#0"/>
    <trip id="442" depart="530.40" from="97637311#0" to="946621531"/>
    <trip id="443" depart="531.60" from="-744825973" to="744825973"/>
    <trip id="444" depart="532.80" from="624410090" to="902979328#1"/>
    <trip id="446" depart="535.20" from="1056276226#0" to="984589551#2"/>
    <trip id="448" depart="537.60" from="624410090" to="-97637311#0"/>
    <trip id="449" depart="538.80" from="744825961#0" to="902979328#1"/>
    <trip id="450" depart="540.00" from="97637311#0" to="-97637311#0"/>
    <trip id="451" depart="541.20" from="97637311#0" to="902979328#1"/>
    <trip id="452" depart="542.40" from="1056276226#0" to="902979328#1"/>
    <trip id="455" depart="546.00" from="624410090" to="984589551#2"/>
    <trip id="456" depart="547.20" from="1056276226#0" to="946621531"/>
    <trip id="458" depart="549.60" from="744825961#0" to="902979328#1"/>
    <trip id="460" depart="552.00" from="744825961#0" to="984589551#2"/>
    <trip id="461" depart="553.20" from="744825961#0" to="984589551#2"/>
    <trip id="462" depart="554.40" from="744825961#0" to="-97637311#0"/>
    <trip id="463" depart="555.60" from="624410090" to="902979328#1"/>
    <trip id="464" depart="556.80" from="744825964#0" to="-744825964#0"/>
    <trip id="465" depart="558.00" from="1056276226#0" to="946621531"/>
    <trip id="467" depart="560.40" from="744825961#0" to="984589551#2"/>
    <trip id="468" depart="561.60" from="744825961#0" to="984589551#2"/>
    <trip id="470" depart="564.00" from="744825964#0" to="744825973"/>
    <trip id="474" depart="568.80" from="97637311#0" to="984589551#2"/>
    <trip id="476" depart="571.20" from="97637311#0" to="946621531"/>
    <trip id="477" depart="572.40" from="624410090" to="946621531"/>
    <trip id="479" depart="574.80" from="624410090" to="946621531"/>
    <trip id="484" depart="580.80" from="744825961#0" to="984589551#2"/>
    <trip id="491" depart="589.20" from="-744825973" to="744825973"/>
    <trip id="494" depart="592.80" from="744825964#0" to="-744825964#0"/>
    <trip id="499" depart="598.80" from="97637311#0" to="984589551#2"/>
    <trip id="501" depart="601.20" from="744825961#0" to="984589551#2"/>
    <trip id="505" depart="606.00" from="744825961#0" to="902979328#1"/>
    <trip id="510" depart="612.00" from="1056276226#0" to="-97637311#0"/>
    <trip id="511" depart="613.20" from="97637311#0" to="-97637311#0"/>
    <trip id="514" depart="616.80" from="-744825973" to="-744825964#0"/>
    <trip id="515" depart="618.00" from="1056276226#0" to="-97637311#0"/>
    <trip id="518" depart="621.60" from="1056276226#0" to="-97637311#0"/>
    <trip id="521" depart="625.20" from="744825964#0" to="744825973"/>
    <trip id="529" depart="634.80" from="744825964#0" to="744825973"/>
    <trip id="533" depart="639.60" from="744825961#0" to="902979328#1"/>
    <trip id="534" depart="640.80" from="1056276226#0" to="984589551#2"/>
    <trip id="538" depart="645.60" from="744825961#0" to="946621531"/>
    <trip id="540" depart="648.00" from="624410090" to="-97637311#0"/>
    <trip id="543" depart="651.60" from="624410090" to="902979328#1"/>
    <trip id="546" depart="655.20" from="744825964#0" to="-744825964#0"/>
    <trip id="549" depart="658.80" from="744825961#0" to="902979328#1"/>
    <trip id="551" depart="661.20" from="624410090" to="902979328#1"/>
    <trip id="555" depart="666.00" from="744825961#0" to="-97637311#0"/>
    <trip id="556" depart="667.20" from="744825961#0" to="-97637311#0"/>
    <trip id="558" depart="669.60" from="624410090" to="946621531"/>
    <trip id="559" depart="670.80" from="744825961#0" to="946621531"/>
    <trip id="560" depart="672.00" from="97637311#0" to="984589551#2"/>
    <trip id="563" depart="675.60" from="97637311#0" to="946621531"/>
    <trip id="564" depart="676.80" from="1056276226#0" to="-97637311#0"/>
    <trip id="567" depart="680.40" from="97637311#0" to="902979328#1"/>
    <trip id="572" depart="686.40" from="624410090" to="946621531"/>
    <trip id="574" depart="688.80" from="-744825973" to="-744825964#0"/>
    <trip id="578" depart="693.60" from="624410090" to="-97637311#0"/>
    <trip id="579" depart="694.80" from="744825964#0" to="-744825964#0"/>
    <trip id="580" depart="696.00" from="624410090" to="-97637311#0"/>
    <trip id="581" depart="697.20" from="744825964#0" to="744825973"/>
    <trip id="582" depart="698.40" from="744825964#0" to="-744825964#0"/>
    <trip id="583" depart="699.60" from="624410090" to="902979328#1"/>
    <trip id="586" depart="703.20" from="1056276226#0" to="-97637311#0"/>
    <trip id="590" depart="708.00" from="97637311#0" to="946621531"/>
    <trip id="592" depart="710.40" from="-744825973" to="-744825964#0"/>
    <trip id="593" depart="711.60" from="97637311#0" to="984589551#2"/>
    <trip id="594" depart="712.80" from="744825961#0" to="902979328#1"/>
    <trip id="595" depart="714.00" from="744825964#0" to="744825973"/>
    <trip id="596" depart="715.20" from="-744825973" to="-744825964#0"/>
    <trip id="597" depart="716.40" from="1056276226#0" to="946621531"/>
    <trip id="598" depart="717.60" from="744825961#0" to="946621531"/>
    <trip id="600" depart="720.00" from="97637311#0" to="-97637311#0"/>
    <trip id="601" depart="721.20" from="744825961#0" to="902979328#1"/>
    <trip id="602" depart="722.40" from="624410090" to="-97637311#0"/>
    <trip id="603" depart="723.60" from="624410090" to="-97637311#0"/>
    <trip id="604" depart="724.80" from="1056276226#0" to="902979328#1"/>
    <trip id="610" depart="732.00" from="744825961#0" to="946621531"/>
    <trip id="611" depart="733.20" from="744825961#0" to="-97637311#0"/>
    <trip id="612" depart="734.40" from="744825964#0" to="744825973"/>
    <trip id="614" depart="736.80" from="624410090" to="984589551#2"/>
    <trip id="615" depart="738.00" from="744825961#0" to="902979328#1"/>
    <trip id="616" depart="739.20" from="744825961#0" to="984589551#2"/>
    <trip id="618" depart="741.60" from="-744825973" to="744825973"/>
    <trip id="619" depart="742.80" from="1056276226#0" to="-97637311#0"/>
    <trip id="624" depart="748.80" from="97637311#0" to="902979328#1"/>
    <trip id="626" depart="751.20" from="744825961#0" to="946621531"/>
    <trip id="630" depart="756.00" from="-744825973" to="-744825964#0"/>
    <trip id="632" depart="758.40" from="624410090" to="946621531"/>
    <trip id="633" depart="759.60" from="744825961#0" to="-97637311#0"/>
    <trip id="635" depart="762.00" from="624410090" to="902979328#1"/>
    <trip id="636" depart="763.20" from="-744825973" to="744825973"/>
    <trip id="638" depart="765.60" from="624410090" to="902979328#1"/>
    <trip id="640" depart="768.00" from="-744825973" to="-744825964#0"/>
    <trip id="643" depart="771.60" from="97637311#0" to="984589551#2"/>
    <trip id="644" depart="772.80" from="624410090" to="902979328#1"/>
    <trip id="645" depart="774.00" from="-744825973" to="744825973"/>
    <trip id="646" depart="775.20" from="97637311#0" to="946621531"/>
    <trip id="647" depart="776.40" from="624410090" to="902979328#1"/>
    <trip id="648" depart="777.60" from="97637311#0" to="-97637311#0"/>
    <trip id="649" depart="778.80" from="624410090" to="946621531"/>
    <trip id="655" depart="786.00" from="1056276226#0" to="-97637311#0"/>
    <trip id="660" depart="792.00" from="97637311#0" to="984589551#2"/>
    <trip id="661" depart="793.20" from="-744825973" to="744825973"/>
    <trip id="662" depart="794.40" from="744825964#0" to="-744825964#0"/>
    <trip id="665" depart="798.00" from="744825964#0" to="-744825964#0"/>
    <trip id="668" depart="801.60" from="624410090" to="-97637311#0"/>
    <trip id="669" depart="802.80" from="744825964#0" to="744825973"/>
    <trip id="670" depart="804.00" from="744825961#0" to="-97637311#0"/>
    <trip id="671" depart="805.20" from="744825964#0" to="744825973"/>
    <trip id="673" depart="807.60" from="97637311#0" to="984589551#2"/>
    <trip id="674" depart="808.80" from="624410090" to="-97637311#0"/>
    <trip id="675" depart="810.00" from="624410090" to="902979328#1"/>
    <trip id="676" depart="811.20" from="97637311#0" to="946621531"/>
    <trip id="677" depart="812.40" from="744825964#0" to="-744825964#0"/>
    <trip id="678" depart="813.60" from="1056276226#0" to="902979328#1"/>
    <trip id="679" depart="814.80" from="97637311#0" to="902979328#1"/>
    <trip id="681" depart="817.20" from="97637311#0" to="-97637311#0"/>
    <trip id="684" depart="820.80" from="624410090" to="984589551#2"/>
    <trip id="688" depart="825.60" from="1056276226#0" to="984589551#2"/>
    <trip id="690" depart="828.00" from="97637311#0" to="984589551#2"/>
    <trip id="691" depart="829.20" from="744825961#0" to="946621531"/>
    <trip id="697" depart="836.40" from="97637311#0" to="902979328#1"/>
    <trip id="701" depart="841.20" from="624410090" to="946621531"/>
    <trip id="703" depart="843.60" from="97637311#0" to="902979328#1"/>
    <trip id="706" depart="847.20" from="624410090" to="902979328#1"/>
    <trip id="710" depart="852.00" from="744825961#0" to="902979328#1"/>
    <trip id="711" depart="853.20" from="97637311#0" to="902979328#1"/>
    <trip id="713" depart="855.60" from="744825961#0" to="984589551#2"/>
    <trip id="715" depart="858.00" from="744825964#0" to="744825973"/>
    <trip id="719" depart="862.80" from="744825961#0" to="946621531"/>
    <trip id="720" depart="864.00" from="1056276226#0" to="946621531"/>
    <trip id="721" depart="865.20" from="624410090" to="946621531"/>
    <trip id="722" depart="866.40" from="744825961#0" to="946621531"/>
    <trip id="724" depart="868.80" from="624410090" to="-97637311#0"/>
    <trip id="727" depart="872.40" from="744825961#0" to="984589551#2"/>
    <trip id="728" depart="873.60" from="744825961#0" to="-97637311#0"/>
    <trip id="730" depart="876.00" from="624410090" to="946621531"/>
    <trip id="731" depart="877.20" from="97637311#0" to="-97637311#0"/>
    <trip id="732" depart="878.40" from="-744825973" to="744825973"/>
    <trip id="733" depart="879.60" from="97637311#0" to="946621531"/>
    <trip id="736" depart="883.20" from="624410090" to="984589551#2"/>