<?xml version="1.0" encoding="UTF-8"?>

<!-- generated on 2024-09-03 01:37:56.339075 by randomTrips.py UNKNOWN
<configuration>
    <net-file value="train_files/roundabout/middle/outputs/map(63)_dict/map(63)/map(63).net.xml"/>
    <output-trip-file value="train_files/roundabout/middle/outputs/map(63)_dict/map(63)/map(63).trips.xml"/>
    <fringe-factor value="max"/>
    <validate value="True"/>
    <period value="1.2"/>
</configuration>
-->

<!-- generated on 2024-09-03 01:37:56 by Eclipse SUMO duarouter Version 1.20.0
<configuration xmlns:xsi="http://www.w3.org/2001/XMLSchema-instance" xsi:noNamespaceSchemaLocation="http://sumo.dlr.de/xsd/duarouterConfiguration.xsd">

    <input>
        <net-file value="train_files/roundabout/middle/outputs/map(63)_dict/map(63)/map(63).net.xml"/>
        <route-files value="train_files/roundabout/middle/outputs/map(63)_dict/map(63)/map(63).trips.xml"/>
    </input>

    <output>
        <output-file value="train_files/roundabout/middle/outputs/map(63)_dict/map(63)/map(63).trips.xml.tmp"/>
        <alternatives-output value="NUL"/>
        <write-trips value="true"/>
    </output>

    <time>
        <begin value="0"/>
        <end value="3600"/>
    </time>

    <report>
        <no-warnings value="true"/>
        <ignore-errors value="true"/>
        <no-step-log value="true"/>
    </report>

</configuration>
-->

<routes xmlns:xsi="http://www.w3.org/2001/XMLSchema-instance" xsi:noNamespaceSchemaLocation="http://sumo.dlr.de/xsd/routes_file.xsd">
    <trip id="2" depart="2.40" from="16573999#0" to="376157587"/>
    <trip id="5" depart="6.00" from="-10656483#1" to="18066754#1"/>
    <trip id="6" depart="7.20" from="-10656457" to="10656457"/>
    <trip id="7" depart="8.40" from="154275489#0" to="18066754#1"/>
    <trip id="9" depart="10.80" from="306438435#0" to="-306438435#0"/>
    <trip id="11" depart="13.20" from="-376157587" to="10656457"/>
    <trip id="12" depart="14.40" from="435452258#0" to="16574027#1"/>
    <trip id="14" depart="16.80" from="306438435#0" to="306438436"/>
    <trip id="16" depart="19.20" from="-669959992" to="669959992"/>
    <trip id="17" depart="20.40" from="-376157587" to="18066754#1"/>
    <trip id="18" depart="21.60" from="306438435#0" to="306438436"/>
    <trip id="19" depart="22.80" from="306438435#0" to="306438436"/>
    <trip id="22" depart="26.40" from="-10656457" to="10656483#1"/>
    <trip id="23" depart="27.60" from="-10656457" to="10656483#1"/>
    <trip id="24" depart="28.80" from="154275489#0" to="16574027#1"/>
    <trip id="25" depart="30.00" from="-376157587" to="10656457"/>
    <trip id="26" depart="31.20" from="-306438436" to="669959992"/>
    <trip id="28" depart="33.60" from="-10656483#1" to="376157587"/>
    <trip id="29" depart="34.80" from="-10656483#1" to="16574027#1"/>
    <trip id="31" depart="37.20" from="154275489#0" to="376157587"/>
    <trip id="33" depart="39.60" from="-306438436" to="-306438435#0"/>
    <trip id="37" depart="44.40" from="154275489#0" to="16574027#1"/>
    <trip id="38" depart="45.60" from="435452258#0" to="18066754#1"/>
    <trip id="40" depart="48.00" from="154275489#0" to="10656483#1"/>
    <trip id="42" depart="50.40" from="-376157587" to="10656457"/>
    <trip id="43" depart="51.60" from="435452258#0" to="18066754#1"/>
    <trip id="47" depart="56.40" from="-10656457" to="16574027#1"/>
    <trip id="48" depart="57.60" from="435452258#0" to="18066754#1"/>
    <trip id="49" depart="58.80" from="435452258#0" to="435452261#1"/>
    <trip id="50" depart="60.00" from="-10656457" to="376157587"/>
    <trip id="51" depart="61.20" from="16573999#0" to="18066754#1"/>
    <trip id="52" depart="62.40" from="-306438436" to="306438436"/>
    <trip id="53" depart="63.60" from="-10656483#1" to="16574027#1"/>
    <trip id="54" depart="64.80" from="-669959992" to="669959992"/>
    <trip id="57" depart="68.40" from="435452258#0" to="435452261#1"/>
    <trip id="58" depart="69.60" from="-306438436" to="306438436"/>
    <trip id="59" depart="70.80" from="154275489#0" to="10656457"/>
    <trip id="60" depart="72.00" from="16573999#0" to="18066754#1"/>
    <trip id="62" depart="74.40" from="-10656457" to="10656483#1"/>
    <trip id="65" depart="78.00" from="-306438436" to="-306438435#0"/>
    <trip id="66" depart="79.20" from="306438435#0" to="669959992"/>
    <trip id="67" depart="80.40" from="-10656457" to="18066754#1"/>
    <trip id="68" depart="81.60" from="-10656457" to="376157587"/>
    <trip id="69" depart="82.80" from="16573999#0" to="10656457"/>
    <trip id="72" depart="86.40" from="-376157587" to="10656457"/>
    <trip id="74" depart="88.80" from="-10656483#1" to="10656483#1"/>
    <trip id="76" depart="91.20" from="-376157587" to="18066754#1"/>
    <trip id="77" depart="92.40" from="-10656483#1" to="10656483#1"/>
    <trip id="81" depart="97.20" from="-306438436" to="669959992"/>
    <trip id="82" depart="98.40" from="306438435#0" to="-306438435#0"/>
    <trip id="84" depart="100.80" from="-10656483#1" to="10656457"/>
    <trip id="88" depart="105.60" from="-10656457" to="16574027#1"/>
    <trip id="89" depart="106.80" from="-376157587" to="18066754#1"/>
    <trip id="90" depart="108.00" from="16573999#0" to="376157587"/>
    <trip id="92" depart="110.40" from="-376157587" to="16574027#1"/>
    <trip id="94" depart="112.80" from="-10656483#1" to="18066754#1"/>
    <trip id="95" depart="114.00" from="-376157587" to="10656483#1"/>
    <trip id="96" depart="115.20" from="-306438436" to="669959992"/>
    <trip id="97" depart="116.40" from="-376157587" to="435452261#1"/>
    <trip id="98" depart="117.60" from="-669959992" to="-306438435#0"/>
    <trip id="99" depart="118.80" from="435452258#0" to="435452261#1"/>
    <trip id="108" depart="129.60" from="154275489#0" to="376157587"/>
    <trip id="109" depart="130.80" from="-10656483#1" to="10656483#1"/>
    <trip id="115" depart="138.00" from="-10656457" to="10656457"/>
    <trip id="116" depart="139.20" from="154275489#0" to="376157587"/>
    <trip id="118" depart="141.60" from="435452258#0" to="10656483#1"/>
    <trip id="121" depart="145.20" from="-669959992" to="669959992"/>
    <trip id="122" depart="146.40" from="-10656483#1" to="376157587"/>
    <trip id="124" depart="148.80" from="16573999#0" to="10656483#1"/>
    <trip id="126" depart="151.20" from="-10656457" to="18066754#1"/>
    <trip id="128" depart="153.60" from="-10656457" to="10656457"/>
    <trip id="129" depart="154.80" from="-306438436" to="669959992"/>
    <trip id="131" depart="157.20" from="-376157587" to="10656457"/>
    <trip id="137" depart="164.40" from="-10656483#1" to="10656457"/>
    <trip id="138" depart="165.60" from="-10656457" to="18066754#1"/>
    <trip id="139" depart="166.80" from="-306438436" to="306438436"/>
    <trip id="140" depart="168.00" from="16573999#0" to="10656457"/>
    <trip id="141" depart="169.20" from="154275489#0" to="10656483#1"/>
    <trip id="142" depart="170.40" from="-669959992" to="669959992"/>
    <trip id="143" depart="171.60" from="306438435#0" to="-306438435#0"/>
    <trip id="144" depart="172.80" from="-376157587" to="10656483#1"/>
    <trip id="145" depart="174.00" from="-10656457" to="376157587"/>
    <trip id="146" depart="175.20" from="154275489#0" to="10656483#1"/>
    <trip id="147" depart="176.40" from="16573999#0" to="18066754#1"/>
    <trip id="149" depart="178.80" from="-10656457" to="435452261#1"/>
    <trip id="150" depart="180.00" from="435452258#0" to="18066754#1"/>
    <trip id="151" depart="181.20" from="306438435#0" to="306438436"/>
    <trip id="152" depart="182.40" from="-10656483#1" to="10656457"/>
    <trip id="153" depart="183.60" from="-306438436" to="669959992"/>
    <trip id="155" depart="186.00" from="435452258#0" to="10656457"/>
    <trip id="156" depart="187.20" from="-306438436" to="-306438435#0"/>
    <trip id="160" depart="192.00" from="306438435#0" to="669959992"/>
    <trip id="162" depart="194.40" from="-10656457" to="376157587"/>
    <trip id="163" depart="195.60" from="-306438436" to="669959992"/>
    <trip id="166" depart="199.20" from="306438435#0" to="-306438435#0"/>
    <trip id="171" depart="205.20" from="-10656457" to="10656457"/>
    <trip id="173" depart="207.60" from="435452258#0" to="10656483#1"/>
    <trip id="174" depart="208.80" from="154275489#0" to="16574027#1"/>
    <trip id="175" depart="210.00" from="435452258#0" to="18066754#1"/>
    <trip id="176" depart="211.20" from="435452258#0" to="10656457"/>
    <trip id="177" depart="212.40" from="435452258#0" to="10656457"/>
    <trip id="178" depart="213.60" from="435452258#0" to="10656483#1"/>
    <trip id="179" depart="214.80" from="-10656457" to="16574027#1"/>
    <trip id="180" depart="216.00" from="16573999#0" to="10656483#1"/>
    <trip id="181" depart="217.20" from="154275489#0" to="18066754#1"/>
    <trip id="186" depart="223.20" from="16573999#0" to="376157587"/>
    <trip id="188" depart="225.60" from="154275489#0" to="10656483#1"/>
    <trip id="190" depart="228.00" from="16573999#0" to="10656483#1"/>
    <trip id="192" depart="230.40" from="-376157587" to="10656483#1"/>
    <trip id="193" depart="231.60" from="-10656483#1" to="16574027#1"/>
    <trip id="194" depart="232.80" from="435452258#0" to="376157587"/>
    <trip id="197" depart="236.40" from="-10656457" to="10656483#1"/>
    <trip id="199" depart="238.80" from="154275489#0" to="18066754#1"/>
    <trip id="200" depart="240.00" from="-376157587" to="10656457"/>
    <trip id="201" depart="241.20" from="-669959992" to="669959992"/>
    <trip id="203" depart="243.60" from="-10656457" to="18066754#1"/>
    <trip id="204" depart="244.80" from="154275489#0" to="16574027#1"/>
    <trip id="206" depart="247.20" from="16573999#0" to="10656483#1"/>
    <trip id="209" depart="250.80" from="306438435#0" to="-306438435#0"/>
    <trip id="211" depart="253.20" from="-10656483#1" to="376157587"/>
    <trip id="214" depart="256.80" from="16573999#0" to="376157587"/>
    <trip id="215" depart="258.00" from="-10656457" to="16574027#1"/>
    <trip id="217" depart="260.40" from="-669959992" to="-306438435#0"/>
    <trip id="223" depart="267.60" from="16573999#0" to="18066754#1"/>
    <trip id="225" depart="270.00" from="435452258#0" to="376157587"/>
    <trip id="227" depart="272.40" from="-306438436" to="306438436"/>
    <trip id="228" depart="273.60" from="16573999#0" to="18066754#1"/>
    <trip id="229" depart="274.80" from="154275489#0" to="10656483#1"/>
    <trip id="230" depart="276.00" from="-10656457" to="10656483#1"/>
    <trip id="235" depart="282.00" from="-376157587" to="18066754#1"/>
    <trip id="236" depart="283.20" from="-376157587" to="10656457"/>
    <trip id="238" depart="285.60" from="154275489#0" to="376157587"/>
    <trip id="241" depart="289.20" from="-376157587" to="376157587"/>
    <trip id="242" depart="290.40" from="306438435#0" to="669959992"/>
    <trip id="243" depart="291.60" from="-376157587" to="376157587"/>
    <trip id="244" depart="292.80" from="-669959992" to="306438436"/>
    <trip id="245" depart="294.00" from="-10656483#1" to="10656457"/>
    <trip id="247" depart="296.40" from="-376157587" to="376157587"/>
    <trip id="248" depart="297.60" from="-376157587" to="10656457"/>
    <trip id="253" depart="303.60" from="-10656483#1" to="18066754#1"/>
    <trip id="254" depart="304.80" from="-10656457" to="16574027#1"/>
    <trip id="255" depart="306.00" from="-10656483#1" to="10656483#1"/>
    <trip id="256" depart="307.20" from="16573999#0" to="16574027#1"/>
    <trip id="257" depart="308.40" from="16573999#0" to="435452261#1"/>
    <trip id="258" depart="309.60" from="-306438436" to="-306438435#0"/>
    <trip id="259" depart="310.80" from="-10656457" to="18066754#1"/>
    <trip id="260" depart="312.00" from="435452258#0" to="16574027#1"/>
    <trip id="261" depart="313.20" from="154275489#0" to="435452261#1"/>
    <trip id="262" depart="314.40" from="154275489#0" to="376157587"/>
    <trip id="263" depart="315.60" from="435452258#0" to="10656457"/>
    <trip id="264" depart="316.80" from="-10656457" to="10656457"/>
    <trip id="265" depart="318.00" from="-10656483#1" to="376157587"/>
    <trip id="266" depart="319.20" from="154275489#0" to="10656457"/>
    <trip id="267" depart="320.40" from="16573999#0" to="376157587"/>
    <trip id="269" depart="322.80" from="16573999#0" to="10656457"/>
    <trip id="270" depart="324.00" from="306438435#0" to="669959992"/>
    <trip id="273" depart="327.60" from="435452258#0" to="16574027#1"/>
    <trip id="276" depart="331.20" from="-10656457" to="376157587"/>
    <trip id="277" depart="332.40" from="306438435#0" to="306438436"/>
    <trip id="280" depart="336.00" from="-376157587" to="16574027#1"/>
    <trip id="284" depart="340.80" from="154275489#0" to="435452261#1"/>
    <trip id="285" depart="342.00" from="16573999#0" to="16574027#1"/>
    <trip id="289" depart="346.80" from="-376157587" to="376157587"/>
    <trip id="291" depart="349.20" from="306438435#0" to="-306438435#0"/>
    <trip id="293" depart="351.60" from="-669959992" to="306438436"/>
    <trip id="296" depart="355.20" from="-10656483#1" to="435452261#1"/>
    <trip id="297" depart="356.40" from="-376157587" to="435452261#1"/>
    <trip id="298" depart="357.60" from="16573999#0" to="10656483#1"/>
    <trip id="300" depart="360.00" from="-10656457" to="376157587"/>
    <trip id="304" depart="364.80" from="-10656457" to="10656457"/>
    <trip id="305" depart="366.00" from="16573999#0" to="10656483#1"/>
    <trip id="306" depart="367.20" from="154275489#0" to="18066754#1"/>
    <trip id="308" depart="369.60" from="16573999#0" to="10656483#1"/>
    <trip id="309" depart="370.80" from="16573999#0" to="10656483#1"/>
    <trip id="311" depart="373.20" from="-10656483#1" to="10656457"/>
    <trip id="313" depart="375.60" from="-10656483#1" to="10656457"/>
    <trip id="315" depart="378.00" from="435452258#0" to="18066754#1"/>
    <trip id="316" depart="379.20" from="-306438436" to="-306438435#0"/>
    <trip id="317" depart="380.40" from="-10656483#1" to="10656483#1"/>
    <trip id="320" depart="384.00" from="435452258#0" to="18066754#1"/>
    <trip id="321" depart="385.20" from="16573999#0" to="10656457"/>
    <trip id="323" depart="387.60" from="306438435#0" to="306438436"/>
    <trip id="326" depart="391.20" from="435452258#0" to="18066754#1"/>
    <trip id="329" depart="394.80" from="-10656457" to="10656457"/>
    <trip id="330" depart="396.00" from="154275489#0" to="10656483#1"/>
    <trip id="331" depart="397.20" from="435452258#0" to="10656457"/>
    <trip id="335" depart="402.00" from="-376157587" to="435452261#1"/>
    <trip id="336" depart="403.20" from="435452258#0" to="10656483#1"/>
    <trip id="339" depart="406.80" from="-10656483#1" to="10656457"/>
    <trip id="340" depart="408.00" from="154275489#0" to="10656457"/>
    <trip id="342" depart="410.40" from="-10656457" to="18066754#1"/>
    <trip id="343" depart="411.60" from="154275489#0" to="10656483#1"/>
    <trip id="345" depart="414.00" from="16573999#0" to="18066754#1"/>
    <trip id="347" depart="416.40" from="306438435#0" to="306438436"/>
    <trip id="349" depart="418.80" from="-376157587" to="18066754#1"/>
    <trip id="351" depart="421.20" from="306438435#0" to="-306438435#0"/>
    <trip id="352" depart="422.40" from="-10656483#1" to="10656483#1"/>
    <trip id="355" depart="426.00" from="16573999#0" to="376157587"/>
    <trip id="356" depart="427.20" from="435452258#0" to="18066754#1"/>
    <trip id="357" depart="428.40" from="-669959992" to="-306438435#0"/>
    <trip id="358" depart="429.60" from="-10656457" to="16574027#1"/>
    <trip id="361" depart="433.20" from="306438435#0" to="306438436"/>
    <trip id="363" depart="435.60" from="16573999#0" to="10656483#1"/>
    <trip id="364" depart="436.80" from="-10656457" to="376157587"/>
    <trip id="365" depart="438.00" from="-669959992" to="306438436"/>
    <trip id="366" depart="439.20" from="435452258#0" to="10656457"/>
    <trip id="368" depart="441.60" from="-669959992" to="-306438435#0"/>
    <trip id="369" depart="442.80" from="-376157587" to="10656483#1"/>
    <trip id="370" depart="444.00" from="16573999#0" to="435452261#1"/>
    <trip id="372" depart="446.40" from="-306438436" to="669959992"/>
    <trip id="375" depart="450.00" from="-306438436" to="669959992"/>
    <trip id="376" depart="451.20" from="-376157587" to="18066754#1"/>
    <trip id="379" depart="454.80" from="-10656483#1" to="16574027#1"/>
    <trip id="381" depart="457.20" from="16573999#0" to="10656457"/>
    <trip id="382" depart="458.40" from="-669959992" to="669959992"/>
    <trip id="383" depart="459.60" from="-376157587" to="376157587"/>
    <trip id="385" depart="462.00" from="154275489#0" to="10656483#1"/>
    <trip id="386" depart="463.20" from="-10656483#1" to="18066754#1"/>
    <trip id="387" depart="464.40" from="-669959992" to="-306438435#0"/>
    <trip id="391" depart="469.20" from="16573999#0" to="18066754#1"/>
    <trip id="393" depart="471.60" from="435452258#0" to="10656483#1"/>
    <trip id="395" depart="474.00" from="435452258#0" to="18066754#1"/>
    <trip id="406" depart="487.20" from="-10656483#1" to="376157587"/>
    <trip id="407" depart="488.40" from="154275489#0" to="10656483#1"/>
    <trip id="409" depart="490.80" from="16573999#0" to="376157587"/>
    <trip id="411" depart="493.20" from="154275489#0" to="435452261#1"/>
    <trip id="412" depart="494.40" from="435452258#0" to="18066754#1"/>
    <trip id="413" depart="495.60" from="-10656457" to="18066754#1"/>
    <trip id="414" depart="496.80" from="154275489#0" to="435452261#1"/>
    <trip id="417" depart="500.40" from="16573999#0" to="16574027#1"/>
    <trip id="418" depart="501.60" from="154275489#0" to="10656457"/>
    <trip id="419" depart="502.80" from="-669959992" to="669959992"/>
    <trip id="420" depart="504.00" from="-376157587" to="376157587"/>
    <trip id="421" depart="505.20" from="154275489#0" to="435452261#1"/>
    <trip id="423" depart="507.60" from="-376157587" to="10656483#1"/>
    <trip id="424" depart="508.80" from="16573999#0" to="376157587"/>
    <trip id="425" depart="510.00" from="306438435#0" to="-306438435#0"/>
    <trip id="428" depart="513.60" from="16573999#0" to="16574027#1"/>
    <trip id="432" depart="518.40" from="-10656457" to="435452261#1"/>
    <trip id="434" depart="520.80" from="-10656483#1" to="18066754#1"/>
    <trip id="435" depart="522.00" from="154275489#0" to="435452261#1"/>
    <trip id="437" depart="524.40" from="306438435#0" to="306438436"/>
    <trip id="438" depart="525.60" from="-306438436" to="669959992"/>
    <trip id="439" depart="526.80" from="-10656483#1" to="18066754#1"/>
    <trip id="441" depart="529.20" from="-10656457" to="435452261#1"/>
    <trip id="442" depart="530.40" from="435452258#0" to="376157587"/>
    <trip id="443" depart="531.60" from="-10656483#1" to="16574027#1"/>
    <trip id="445" depart="534.00" from="154275489#0" to="16574027#1"/>
    <trip id="447" depart="536.40" from="-10656483#1" to="16574027#1"/>
    <trip id="450" depart="540.00" from="435452258#0" to="10656483#1"/>
    <trip id="452" depart="542.40" from="-306438436" to="306438436"/>
    <trip id="453" depart="543.60" from="16573999#0" to="376157587"/>
    <trip id="455" depart="546.00" from="-669959992" to="669959992"/>
    <trip id="457" depart="548.40" from="154275489#0" to="16574027#1"/>
    <trip id="459" depart="550.80" from="16573999#0" to="376157587"/>
    <trip id="460" depart="552.00" from="154275489#0" to="435452261#1"/>
    <trip id="462" depart="554.40" from="154275489#0" to="10656483#1"/>
    <trip id="466" depart="559.20" from="-10656483#1" to="10656457"/>
    <trip id="467" depart="560.40" from="-669959992" to="669959992"/>
    <trip id="468" depart="561.60" from="-669959992" to="669959992"/>
    <trip id="472" depart="566.40" from="-376157587" to="10656457"/>
    <trip id="473" depart="567.60" from="435452258#0" to="10656457"/>
    <trip id="474" depart="568.80" from="435452258#0" to="435452261#1"/>
    <trip id="476" depart="571.20" from="435452258#0" to="435452261#1"/>
    <trip id="477" depart="572.40" from="-376157587" to="435452261#1"/>
    <trip id="478" depart="573.60" from="-10656457" to="18066754#1"/>
    <trip id="481" depart="577.20" from="306438435#0" to="669959992"/>
    <trip id="482" depart="578.40" from="-10656457" to="10656483#1"/>
    <trip id="483" depart="579.60" from="-10656457" to="435452261#1"/>
    <trip id="486" depart="583.20" from="306438435#0" to="669959992"/>
    <trip id="490" depart="588.00" from="-10656457" to="435452261#1"/>
    <trip id="491" depart="589.20" from="-10656483#1" to="18066754#1"/>
    <trip id="492" depart="590.40" from="16573999#0" to="376157587"/>
    <trip id="493" depart="591.60" from="435452258#0" to="16574027#1"/>
    <trip id="494" depart="592.80" from="16573999#0" to="10656457"/>
    <trip id="498" depart="597.60" from="-376157587" to="16574027#1"/>
    <trip id="499" depart="598.80" from="435452258#0" to="435452261#1"/>
    <trip id="500" depart="600.00" from="-10656457" to="376157587"/>
    <trip id="501" depart="601.20" from="-669959992" to="669959992"/>
    <trip id="502" depart="602.40" from="-376157587" to="16574027#1"/>
    <trip id="503" depart="603.60" from="-10656483#1" to="10656457"/>
    <trip id="509" depart="610.80" from="-10656457" to="376157587"/>
    <trip id="510" depart="612.00" from="-10656483#1" to="10656457"/>
    <trip id="513" depart="615.60" from="-10656457" to="435452261#1"/>
    <trip id="514" depart="616.80" from="-10656483#1" to="10656457"/>
    <trip id="517" depart="620.40" from="-10656457" to="435452261#1"/>
    <trip id="520" depart="624.00" from="16573999#0" to="18066754#1"/>
    <trip id="521" depart="625.20" from="16573999#0" to="18066754#1"/>
    <trip id="523" depart="627.60" from="-10656457" to="18066754#1"/>
    <trip id="529" depart="634.80" from="16573999#0" to="18066754#1"/>
    <trip id="532" depart="638.40" from="-10656457" to="10656483#1"/>
    <trip id="533" depart="639.60" from="154275489#0" to="18066754#1"/>
    <trip id="534" depart="640.80" from="-306438436" to="669959992"/>
    <trip id="537" depart="644.40" from="16573999#0" to="435452261#1"/>
    <trip id="538" depart="645.60" from="154275489#0" to="376157587"/>
    <trip id="539" depart="646.80" from="16573999#0" to="10656457"/>
    <trip id="541" depart="649.20" from="-376157587" to="18066754#1"/>
    <trip id="544" depart="652.80" from="-376157587" to="10656457"/>
    <trip id="546" depart="655.20" from="306438435#0" to="-306438435#0"/>
    <trip id="547" depart="656.40" from="-10656457" to="376157587"/>
    <trip id="548" depart="657.60" from="306438435#0" to="306438436"/>
    <trip id="552" depart="662.40" from="16573999#0" to="435452261#1"/>
    <trip id="554" depart="664.80" from="154275489#0" to="16574027#1"/>
    <trip id="555" depart="666.00" from="154275489#0" to="10656457"/>
    <trip id="556" depart="667.20" from="154275489#0" to="10656483#1"/>
    <trip id="557" depart="668.40" from="-10656457" to="435452261#1"/>
    <trip id="558" depart="669.60" from="-376157587" to="376157587"/>
    <trip id="559" depart="670.80" from="154275489#0" to="435452261#1"/>
    <trip id="560" depart="672.00" from="306438435#0" to="669959992"/>
    <trip id="561" depart="673.20" from="306438435#0" to="306438436"/>
    <trip id="563" depart="675.60" from="435452258#0" to="435452261#1"/>
    <trip id="565" depart="678.00" from="16573999#0" to="10656483#1"/>
    <trip id="567" depart="680.40" from="306438435#0" to="306438436"/>
    <trip id="568" depart="681.60" from="-376157587" to="10656457"/>
    <trip id="570" depart="684.00" from="16573999#0" to="10656457"/>
    <trip id="571" depart="685.20" from="-376157587" to="16574027#1"/>
    <trip id="572" depart="686.40" from="-376157587" to="376157587"/>
    <trip id="576" depart="691.20" from="16573999#0" to="10656483#1"/>
    <trip id="577" depart="692.40" from="154275489#0" to="18066754#1"/>
    <trip id="578" depart="693.60" from="-376157587" to="10656483#1"/>
    <trip id="579" depart="694.80" from="16573999#0" to="10656457"/>
    <trip id="580" depart="696.00" from="-376157587" to="10656483#1"/>
    <trip id="581" depart="697.20" from="16573999#0" to="18066754#1"/>
    <trip id="584" depart="700.80" from="-10656457" to="10656483#1"/>
    <trip id="585" depart="702.00" from="-10656483#1" to="10656457"/>
    <trip id="587" depart="704.40" from="-10656457" to="376157587"/>
    <trip id="588" depart="705.60" from="-10656483#1" to="16574027#1"/>
    <trip id="589" depart="706.80" from="16573999#0" to="18066754#1"/>
    <trip id="591" depart="709.20" from="-10656457" to="435452261#1"/>
    <trip id="593" depart="711.60" from="435452258#0" to="435452261#1"/>
    <trip id="595" depart="714.00" from="16573999#0" to="16574027#1"/>
    <trip id="598" depart="717.60" from="154275489#0" to="435452261#1"/>
    <trip id="601" depart="721.20" from="154275489#0" to="18066754#1"/>
    <trip id="602" depart="722.40" from="-376157587" to="10656483#1"/>
    <trip id="603" depart="723.60" from="-376157587" to="10656483#1"/>
    <trip id="604" depart="724.80" from="-10656483#1" to="18066754#1"/>
    <trip id="605" depart="726.00" from="-10656483#1" to="18066754#1"/>
    <trip id="606" depart="727.20" from="435452258#0" to="16574027#1"/>
    <trip id="607" depart="728.40" from="16573999#0" to="435452261#1"/>
    <trip id="609" depart="730.80" from="-10656483#1" to="10656457"/>
    <trip id="610" depart="732.00" from="154275489#0" to="376157587"/>
    <trip id="611" depart="733.20" from="154275489#0" to="10656457"/>
    <trip id="612" depart="734.40" from="16573999#0" to="18066754#1"/>
    <trip id="613" depart="735.60" from="16573999#0" to="376157587"/>
    <trip id="614" depart="736.80" from="-669959992" to="669959992"/>
    <trip id="616" depart="739.20" from="154275489#0" to="435452261#1"/>
    <trip id="617" depart="740.40" from="154275489#0" to="10656457"/>
    <trip id="618" depart="741.60" from="-10656457" to="16574027#1"/>
    <trip id="620" depart="744.00" from="-10656457" to="18066754#1"/>
    <trip id="622" depart="746.40" from="-10656457" to="435452261#1"/>
    <trip id="623" depart="747.60" from="-10656457" to="435452261#1"/>
    <trip id="624" depart="748.80" from="306438435#0" to="306438436"/>
    <trip id="627" depart="752.40" from="435452258#0" to="18066754#1"/>
    <trip id="628" depart="753.60" from="306438435#0" to="306438436"/>
    <trip id="632" depart="758.40" from="-376157587" to="376157587"/>
    <trip id="635" depart="762.00" from="-376157587" to="18066754#1"/>
    <trip id="636" depart="763.20" from="-10656483#1" to="16574027#1"/>
    <trip id="639" depart="766.80" from="306438435#0" to="306438436"/>
    <trip id="641" depart="769.20" from="16573999#0" to="10656483#1"/>
    <trip id="643" depart="771.60" from="435452258#0" to="435452261#1"/>
    <trip id="645" depart="774.00" from="-10656483#1" to="16574027#1"/>
    <trip id="646" depart="775.20" from="435452258#0" to="376157587"/>
    <trip id="648" depart="777.60" from="435452258#0" to="10656483#1"/>
    <trip id="649" depart="778.80" from="-376157587" to="435452261#1"/>
    <trip id="652" depart="782.40" from="16573999#0" to="18066754#1"/>
    <trip id="653" depart="783.60" from="154275489#0" to="16574027#1"/>
    <trip id="654" depart="784.80" from="-376157587" to="16574027#1"/>
    <trip id="655" depart="786.00" from="-10656483#1" to="10656457"/>
    <trip id="656" depart="787.20" from="435452258#0" to="18066754#1"/>
    <trip id="658" depart="789.60" from="-10656457" to="435452261#1"/>
    <trip id="659" depart="790.80" from="-10656457" to="376157587"/>
    <trip id="661" depart="793.20" from="-10656457" to="16574027#1"/>
    <trip id="662" depart="794.40" from="16573999#0" to="10656457"/>
    <trip id="663" depart="795.60" from="-376157587" to="10656457"/>
    <trip id="666" depart="799.20" from="-376157587" to="16574027#1"/>
    <trip id="667" depart="800.40" from="16573999#0" to="10656483#1"/>
    <trip id="668" depart="801.60" from="-376157587" to="10656483#1"/>
    <trip id="669" depart="802.80" from="16573999#0" to="18066754#1"/>
    <trip id="675" depart="810.00" from="-376157587" to="18066754#1"/>
    <trip id="676" depart="811.20" from="435452258#0" to="435452261#1"/>
    <trip id="678" depart="813.60" from="-306438436" to="306438436"/>
    <trip id="680" depart="816.00" from="-10656457" to="435452261#1"/>
    <trip id="682" depart="818.40" from="16573999#0" to="10656483#1"/>
    <trip id="683" depart="819.60" from="435452258#0" to="10656457"/>
    <trip id="685" depart="822.00" from="-10656483#1" to="18066754#1"/>
    <trip id="687" depart="824.40" from="-10656457" to="18066754#1"/>
    <trip id="688" depart="825.60" from="-306438436" to="669959992"/>
    <trip id="690" depart="828.00" from="435452258#0" to="435452261#1"/>
    <trip id="691" depart="829.20" from="154275489#0" to="435452261#1"/>
    <trip id="692" depart="830.40" from="-10656483#1" to="10656483#1"/>
    <trip id="694" depart="832.80" from="-10656483#1" to="376157587"/>
    <trip id="695" depart="834.00" from="-669959992" to="-306438435#0"/>
    <trip id="696" depart="835.20" from="-10656457" to="10656483#1"/>
    <trip id="698" depart="837.60" from="16573999#0" to="18066754#1"/>
    <trip id="699" depart="838.80" from="-10656483#1" to="10656483#1"/>
    <trip id="700" depart="840.00" from="-306438436" to="-306438435#0"/>
    <trip id="701" depart="841.20" from="-376157587" to="435452261#1"/>
    <trip id="702" depart="842.40" from="-669959992" to="-306438435#0"/>
    <trip id="704" depart="844.80" from="-10656457" to="18066754#1"/>
    <trip id="711" depart="853.20" from="435452258#0" to="18066754#1"/>
    <trip id="712" depart="854.40" from="-376157587" to="18066754#1"/>
    <trip id="714" depart="856.80" from="-306438436" to="-306438435#0"/>
    <trip id="717" depart="860.40" from="16573999#0" to="376157587"/>