<?xml version="1.0" encoding="UTF-8"?>

<!-- generated on 2024-09-03 01:37:56 by Eclipse SUMO netconvert Version 1.20.0
<configuration xmlns:xsi="http://www.w3.org/2001/XMLSchema-instance" xsi:noNamespaceSchemaLocation="http://sumo.dlr.de/xsd/netconvertConfiguration.xsd">

    <input>
        <osm-files value="train_files/roundabout/middle/osm_files/map(63).osm"/>
    </input>

    <output>
        <output-file value="train_files/roundabout/middle/outputs/map(63)_dict/map(63)/map(63).net.xml"/>
    </output>

    <projection>
        <proj.utm value="true"/>
    </projection>

    <building_defaults>
        <default.junctions.keep-clear value="false"/>
    </building_defaults>

</configuration>
-->

<net version="1.20" junctionCornerDetail="5" limitTurnSpeed="5.50" xmlns:xsi="http://www.w3.org/2001/XMLSchema-instance" xsi:noNamespaceSchemaLocation="http://sumo.dlr.de/xsd/net_file.xsd">

    <location netOffset="-440641.00,-5422520.45" convBoundary="0.00,0.00,1202.91,898.66" origBoundary="2.189104,48.952833,2.205516,48.960843" projParameter="+proj=utm +zone=31 +ellps=WGS84 +datum=WGS84 +units=m +no_defs"/>

    <type id="highway.cycleway" priority="1" numLanes="1" speed="5.56" allow="bicycle" oneway="0" width="2.00"/>
    <type id="highway.footway" priority="1" numLanes="1" speed="2.78" allow="pedestrian" oneway="1" width="2.00"/>
    <type id="highway.primary" priority="12" numLanes="2" speed="27.78" disallow="tram rail_urban rail rail_electric rail_fast ship container cable_car subway aircraft wheelchair scooter drone" oneway="0"/>
    <type id="highway.residential" priority="3" numLanes="1" speed="13.89" disallow="tram rail_urban rail rail_electric rail_fast ship container cable_car subway aircraft wheelchair scooter drone" oneway="0"/>
    <type id="highway.secondary" priority="11" numLanes="1" speed="27.78" disallow="tram rail_urban rail rail_electric rail_fast ship container cable_car subway aircraft wheelchair scooter drone" oneway="0"/>
    <type id="highway.service" priority="1" numLanes="1" speed="5.56" allow="pedestrian delivery bicycle" oneway="0"/>
    <type id="highway.tertiary" priority="10" numLanes="1" speed="22.22" disallow="tram rail_urban rail rail_electric rail_fast ship container cable_car subway aircraft wheelchair scooter drone" oneway="0"/>

    <edge id=":10741772118_0" function="internal">
        <lane id=":10741772118_0_0" index="0" allow="pedestrian delivery bicycle" speed="3.65" length="4.67" shape="1163.95,737.43 1163.83,738.87 1163.33,739.61 1162.43,739.64 1161.15,738.98"/>
    </edge>
    <edge id=":10907513269_0" function="internal">
        <lane id=":10907513269_0_0" index="0" allow="pedestrian delivery bicycle" speed="5.56" length="6.36" shape="985.40,789.41 979.40,791.50"/>
    </edge>
    <edge id=":10907513269_1" function="internal">
        <lane id=":10907513269_1_0" index="0" allow="pedestrian delivery bicycle" speed="5.56" length="7.86" shape="985.40,789.41 983.95,789.50 982.60,788.72 981.36,787.06 980.23,784.52"/>
    </edge>
    <edge id=":10907513269_2" function="internal">
        <lane id=":10907513269_2_0" index="0" allow="pedestrian delivery bicycle" speed="3.65" length="4.67" shape="985.40,789.41 984.00,789.06 983.36,788.43 983.47,787.55 984.34,786.39"/>
    </edge>
    <edge id=":10907513269_3" function="internal">
        <lane id=":10907513269_3_0" index="0" allow="pedestrian delivery bicycle" speed="4.34" length="3.40" shape="983.23,783.42 983.42,784.33 983.56,785.38 983.82,786.20 984.34,786.39"/>
    </edge>
    <edge id=":10907513269_4" function="internal">
        <lane id=":10907513269_4_0" index="0" allow="pedestrian delivery bicycle" speed="5.56" length="10.24" shape="983.23,783.42 983.81,786.17 983.37,788.44 981.89,790.21 979.40,791.50"/>
    </edge>
    <edge id=":10907513269_5" function="internal">
        <lane id=":10907513269_5_0" index="0" allow="pedestrian delivery bicycle" speed="3.65" length="4.67" shape="983.23,783.42 982.89,784.82 982.28,785.47 981.39,785.37 980.23,784.52"/>
    </edge>
    <edge id=":10907513269_6" function="internal">
        <lane id=":10907513269_6_0" index="0" allow="pedestrian delivery bicycle" speed="5.02" length="5.02" shape="978.35,788.48 979.57,787.85 980.29,786.98 980.51,785.87 980.23,784.52"/>
    </edge>
    <edge id=":10907513269_7" function="internal">
        <lane id=":10907513269_7_0" index="0" allow="pedestrian delivery bicycle" speed="5.56" length="6.35" shape="978.35,788.48 984.34,786.39"/>
    </edge>
    <edge id=":10907513269_8" function="internal">
        <lane id=":10907513269_8_0" index="0" allow="pedestrian delivery bicycle" speed="3.65" length="4.67" shape="978.35,788.48 979.74,788.84 980.38,789.47 980.27,790.35 979.40,791.50"/>
    </edge>
    <edge id=":11630592435_0" function="internal">
        <lane id=":11630592435_0_0" index="0" allow="pedestrian delivery bicycle" speed="5.56" length="0.27" shape="1103.92,748.58 1103.85,748.54 1103.81,748.50 1103.77,748.46 1103.71,748.41"/>
    </edge>
    <edge id=":11630592441_0" function="internal">
        <lane id=":11630592441_0_0" index="0" allow="pedestrian delivery bicycle" speed="5.56" length="0.71" shape="1098.47,743.31 1098.32,743.16 1098.23,743.05 1098.17,742.92 1098.09,742.72"/>
    </edge>
    <edge id=":11630592449_0" function="internal">
        <lane id=":11630592449_0_0" index="0" disallow="tram rail_urban rail rail_electric rail_fast ship container cable_car subway aircraft wheelchair scooter drone" speed="13.89" length="6.20" shape="1124.07,795.54 1119.44,791.42"/>
    </edge>
    <edge id=":11630592449_1" function="internal">
        <lane id=":11630592449_1_0" index="0" allow="pedestrian delivery bicycle" speed="5.02" length="5.02" shape="1125.98,788.77 1125.20,789.91 1124.97,791.02 1125.31,792.10 1126.20,793.15"/>
    </edge>
    <edge id=":11630592449_2" function="internal">
        <lane id=":11630592449_2_0" index="0" allow="pedestrian delivery bicycle" speed="6.11" length="7.76" shape="1125.98,788.77 1123.96,790.68 1122.20,791.76 1120.69,792.01 1119.44,791.42"/>
    </edge>
    <edge id=":11630592449_3" function="internal">
        <lane id=":11630592449_3_0" index="0" disallow="tram rail_urban rail rail_electric rail_fast ship container cable_car subway aircraft wheelchair scooter drone" speed="13.89" length="6.20" shape="1121.56,789.03 1126.20,793.15"/>
    </edge>
    <edge id=":1617553418_0" function="internal">
        <lane id=":1617553418_0_0" index="0" allow="bicycle" speed="5.56" length="4.46" width="2.00" shape="1033.65,703.95 1032.53,704.66 1031.77,705.17 1031.09,705.76 1030.19,706.72"/>
    </edge>
    <edge id=":1617553418_1" function="internal">
        <lane id=":1617553418_1_0" index="0" allow="bicycle" speed="2.89" length="1.28" width="2.00" shape="1033.65,703.95 1032.74,703.94 1032.41,703.75"/>
    </edge>
    <edge id=":1617553418_4" function="internal">
        <lane id=":1617553418_4_0" index="0" allow="bicycle" speed="2.89" length="1.64" width="2.00" shape="1032.41,703.75 1032.26,703.66 1032.20,703.10 1032.55,702.27"/>
    </edge>
    <edge id=":1617553418_2" function="internal">
        <lane id=":1617553418_2_0" index="0" allow="bicycle" speed="5.56" length="4.99" width="2.00" shape="1028.70,705.39 1029.70,704.31 1030.46,703.65 1031.30,703.07 1032.55,702.27"/>
    </edge>
    <edge id=":1617553418_3" function="internal">
        <lane id=":1617553418_3_0" index="0" allow="bicycle" speed="2.89" length="1.32" width="2.00" shape="1028.70,705.39 1029.57,705.16 1029.97,705.27"/>
    </edge>
    <edge id=":1617553418_5" function="internal">
        <lane id=":1617553418_5_0" index="0" allow="bicycle" speed="2.89" length="1.60" width="2.00" shape="1029.97,705.27 1030.11,705.31 1030.32,705.83 1030.19,706.72"/>
    </edge>
    <edge id=":1617553504_0" function="internal">
        <lane id=":1617553504_0_0" index="0" allow="bicycle" speed="5.56" length="6.37" width="2.00" shape="1076.17,713.54 1075.29,711.89 1074.96,710.56 1074.54,709.32 1073.35,707.95"/>
    </edge>
    <edge id=":1617553504_1" function="internal">
        <lane id=":1617553504_1_0" index="0" allow="bicycle" speed="5.71" length="6.06" width="2.00" shape="1076.17,713.54 1075.87,712.61 1076.14,711.43 1076.98,709.99 1078.39,708.30"/>
    </edge>
    <edge id=":1617553504_2" function="internal">
        <lane id=":1617553504_2_0" index="0" allow="bicycle" speed="2.91" length="3.00" width="2.00" shape="1076.17,713.54 1076.35,712.63 1076.73,712.20 1077.30,712.24 1078.07,712.76"/>
    </edge>
    <edge id=":1617553504_3" function="internal">
        <lane id=":1617553504_3_0" index="0" allow="bicycle" speed="4.31" length="3.69" width="2.00" shape="1075.22,706.95 1076.33,707.84 1077.23,708.36 1077.91,708.51 1078.39,708.30"/>
    </edge>
    <edge id=":1617553504_4" function="internal">
        <lane id=":1617553504_4_0" index="0" allow="bicycle" speed="5.56" length="6.57" width="2.00" shape="1075.22,706.95 1076.42,708.39 1076.84,709.67 1077.16,711.05 1078.07,712.76"/>
    </edge>
    <edge id=":1617553504_5" function="internal">
        <lane id=":1617553504_5_0" index="0" allow="bicycle" speed="2.95" length="3.09" width="2.00" shape="1075.22,706.95 1075.12,707.90 1074.78,708.38 1074.19,708.40 1073.35,707.95"/>
    </edge>
    <edge id=":1617553504_6" function="internal">
        <lane id=":1617553504_6_0" index="0" allow="bicycle" speed="4.26" length="4.51" width="2.00" shape="1072.21,711.14 1073.54,710.45 1074.17,709.69 1074.11,708.86 1073.35,707.95"/>
    </edge>
    <edge id=":1617553504_7" function="internal">
        <lane id=":1617553504_7_0" index="0" disallow="tram rail_urban rail rail_electric rail_fast ship container cable_car subway aircraft wheelchair scooter drone" speed="13.89" length="7.20" shape="1072.43,711.70 1074.48,711.06 1075.96,710.69 1077.28,710.09 1078.83,708.71"/>
    </edge>
    <edge id=":1617553504_8" function="internal">
        <lane id=":1617553504_8_0" index="0" allow="bicycle" speed="5.93" length="5.86" width="2.00" shape="1072.65,712.26 1074.47,711.71 1075.98,711.62 1077.18,711.96 1078.07,712.76"/>
    </edge>
    <edge id=":1617553553_0" function="internal">
        <lane id=":1617553553_0_0" index="0" allow="bicycle" speed="4.04" length="4.03" width="2.00" shape="1090.28,723.35 1089.32,722.81 1088.50,722.82 1087.81,723.37 1087.25,724.47"/>
    </edge>
    <edge id=":1617553553_1" function="internal">
        <lane id=":1617553553_1_0" index="0" allow="bicycle" speed="5.56" length="9.62" width="2.00" shape="1090.28,723.35 1087.93,721.77 1086.12,721.02 1084.25,720.35 1081.74,719.00"/>
    </edge>
    <edge id=":1617553553_2" function="internal">
        <lane id=":1617553553_2_0" index="0" allow="bicycle" speed="2.93" length="3.04" width="2.00" shape="1090.28,723.35 1089.75,722.57 1089.71,721.99 1090.14,721.61 1091.07,721.42"/>
    </edge>
    <edge id=":1617553553_3" function="internal">
        <lane id=":1617553553_3_0" index="0" allow="bicycle" speed="5.19" length="4.20" width="2.00" shape="1089.85,717.73 1089.61,718.73 1089.73,719.68 1090.22,720.57 1091.07,721.42"/>
    </edge>
    <edge id=":1617553553_4" function="internal">
        <lane id=":1617553553_4_0" index="0" disallow="tram rail_urban rail rail_electric rail_fast ship container cable_car subway aircraft wheelchair scooter drone" speed="13.89" length="7.33" shape="1089.29,717.50 1086.69,724.27"/>
        <lane id=":1617553553_4_1" index="1" disallow="tram rail_urban rail rail_electric rail_fast ship container cable_car subway aircraft wheelchair scooter drone" speed="13.89" length="7.33" shape="1086.33,716.28 1083.68,723.19"/>
    </edge>
    <edge id=":1617553553_6" function="internal">
        <lane id=":1617553553_6_0" index="0" allow="bicycle" speed="5.07" length="5.77" width="2.00" shape="1085.78,716.06 1084.85,717.88 1083.87,718.98 1082.83,719.35 1081.74,719.00"/>
    </edge>
    <edge id=":1617553553_7" function="internal">
        <lane id=":1617553553_7_0" index="0" allow="bicycle" speed="5.56" length="9.53" width="2.00" shape="1082.59,717.17 1085.08,718.50 1086.94,719.15 1088.74,719.87 1091.07,721.42"/>
    </edge>
    <edge id=":1617553553_8" function="internal">
        <lane id=":1617553553_8_0" index="0" allow="bicycle" speed="6.20" length="7.02" width="2.00" shape="1082.59,717.17 1083.88,718.31 1084.58,719.73 1084.70,721.43 1084.24,723.39"/>
    </edge>
    <edge id=":1617553553_9" function="internal">
        <lane id=":1617553553_9_0" index="0" allow="bicycle" speed="2.89" length="2.95" width="2.00" shape="1082.59,717.17 1083.07,717.95 1083.08,718.51 1082.64,718.86 1081.74,719.00"/>
    </edge>
    <edge id=":1617553625_0" function="internal">
        <lane id=":1617553625_0_0" index="0" allow="bicycle" speed="5.04" length="4.65" width="2.00" shape="1021.89,730.70 1020.93,730.14 1019.92,730.06 1018.86,730.46 1017.76,731.33"/>
    </edge>
    <edge id=":1617553625_1" function="internal">
        <lane id=":1617553625_1_0" index="0" disallow="tram rail_urban rail rail_electric rail_fast ship container cable_car subway aircraft wheelchair scooter drone" speed="13.89" length="7.45" shape="1022.28,730.24 1020.58,728.83 1019.36,727.93 1018.06,727.15 1016.13,726.07"/>
    </edge>
    <edge id=":1617553625_2" function="internal">
        <lane id=":1617553625_2_0" index="0" allow="bicycle" speed="6.37" length="5.40" width="2.00" shape="1022.67,729.78 1021.58,728.68 1020.88,727.52 1020.58,726.32 1020.66,725.06"/>
    </edge>
    <edge id=":1617553625_3" function="internal">
        <lane id=":1617553625_3_0" index="0" allow="bicycle" speed="5.56" length="6.79" width="2.00" shape="1022.26,726.26 1021.04,727.86 1020.16,728.92 1019.20,729.91 1017.76,731.33"/>
    </edge>
    <edge id=":1617553625_4" function="internal">
        <lane id=":1617553625_4_0" index="0" allow="bicycle" speed="6.00" length="7.08" width="2.00" shape="1022.26,726.26 1021.09,727.31 1019.62,727.72 1017.87,727.48 1015.84,726.59"/>
    </edge>
    <edge id=":1617553625_5" function="internal">
        <lane id=":1617553625_5_0" index="0" allow="bicycle" speed="3.05" length="2.92" width="2.00" shape="1022.26,726.26 1021.42,726.56 1020.87,726.46 1020.61,725.96 1020.66,725.06"/>
    </edge>
    <edge id=":1617553625_6" function="internal">
        <lane id=":1617553625_6_0" index="0" allow="bicycle" speed="4.24" length="6.83" width="2.00" shape="1016.17,729.42 1018.28,729.43 1018.92,728.97 1018.11,728.02 1015.84,726.59"/>
    </edge>
    <edge id=":1617553625_7" function="internal">
        <lane id=":1617553625_7_0" index="0" allow="bicycle" speed="5.56" length="6.91" width="2.00" shape="1016.17,729.42 1017.76,729.26 1019.03,728.49 1020.00,727.09 1020.66,725.06"/>
    </edge>
    <edge id=":1617553625_8" function="internal">
        <lane id=":1617553625_8_0" index="0" allow="bicycle" speed="3.56" length="3.63" width="2.00" shape="1016.17,729.42 1017.29,729.30 1017.92,729.58 1018.08,730.25 1017.76,731.33"/>
    </edge>
    <edge id=":1617553630_0" function="internal">
        <lane id=":1617553630_0_0" index="0" allow="bicycle" speed="2.89" length="2.92" width="2.00" shape="828.03,15.40 827.66,14.58 827.70,14.02 828.18,13.73 829.08,13.70"/>
    </edge>
    <edge id=":1617553754_0" function="internal">
        <lane id=":1617553754_0_0" index="0" allow="bicycle" speed="5.56" length="5.96" width="2.00" shape="1046.53,699.76 1044.78,700.01 1043.58,700.22 1042.41,700.52 1040.71,701.03"/>
    </edge>
    <edge id=":1617553754_1" function="internal">
        <lane id=":1617553754_1_0" index="0" allow="bicycle" speed="5.42" length="6.91" width="2.00" shape="1046.53,699.76 1044.76,699.71 1043.47,699.00 1042.68,697.61 1042.38,695.56"/>
    </edge>
    <edge id=":1617553754_2" function="internal">
        <lane id=":1617553754_2_0" index="0" allow="bicycle" speed="2.89" length="2.92" width="2.00" shape="1046.53,699.76 1045.71,699.37 1045.39,698.91 1045.57,698.38 1046.24,697.78"/>
    </edge>
    <edge id=":1617553754_3" function="internal">
        <lane id=":1617553754_3_0" index="0" allow="bicycle" speed="5.22" length="4.58" width="2.00" shape="1040.11,699.13 1041.13,698.63 1041.85,697.87 1042.26,696.84 1042.38,695.56"/>
    </edge>
    <edge id=":1617553754_4" function="internal">
        <lane id=":1617553754_4_0" index="0" allow="bicycle" speed="5.56" length="6.29" width="2.00" shape="1040.11,699.13 1041.90,698.58 1043.14,698.27 1044.40,698.05 1046.24,697.78"/>
    </edge>
    <edge id=":1617553754_5" function="internal">
        <lane id=":1617553754_5_0" index="0" allow="bicycle" speed="2.89" length="2.92" width="2.00" shape="1040.11,699.13 1040.98,699.38 1041.37,699.78 1041.28,700.33 1040.71,701.03"/>
    </edge>
    <edge id=":1617553754_6" function="internal">
        <lane id=":1617553754_6_0" index="0" allow="bicycle" speed="3.62" length="2.70" width="2.00" shape="1042.14,702.58 1042.13,701.71 1041.88,701.16 1041.41,700.94 1040.71,701.03"/>
    </edge>
    <edge id=":1617553754_7" function="internal">
        <lane id=":1617553754_7_0" index="0" disallow="tram rail_urban rail rail_electric rail_fast ship container cable_car subway aircraft wheelchair scooter drone" speed="13.89" length="7.11" shape="1042.74,702.64 1042.93,700.54 1043.02,699.10 1043.03,697.65 1042.98,695.54"/>
    </edge>
    <edge id=":1617553754_8" function="internal">
        <lane id=":1617553754_8_0" index="0" allow="bicycle" speed="6.00" length="6.14" width="2.00" shape="1043.34,702.70 1043.68,700.68 1044.29,699.19 1045.14,698.22 1046.24,697.78"/>
    </edge>
    <edge id=":1617553786_0" function="internal">
        <lane id=":1617553786_0_0" index="0" allow="bicycle" speed="5.56" length="7.16" width="2.00" shape="1021.21,722.51 1021.45,720.40 1021.35,718.89 1021.42,717.44 1022.15,715.50"/>
    </edge>
    <edge id=":1617553786_1" function="internal">
        <lane id=":1617553786_1_0" index="0" allow="bicycle" speed="6.64" length="6.95" width="2.00" shape="1021.21,722.51 1021.81,720.89 1022.83,719.63 1024.25,718.73 1026.09,718.20"/>
    </edge>
    <edge id=":1617553786_2" function="internal">
        <lane id=":1617553786_2_0" index="0" allow="bicycle" speed="2.95" length="3.12" width="2.00" shape="1021.21,722.51 1021.63,721.64 1022.12,721.30 1022.68,721.48 1023.33,722.20"/>
    </edge>
    <edge id=":1617553786_3" function="internal">
        <lane id=":1617553786_3_0" index="0" allow="bicycle" speed="3.88" length="4.39" width="2.00" shape="1024.22,715.85 1023.77,717.09 1023.93,717.90 1024.70,718.27 1026.09,718.20"/>
    </edge>
    <edge id=":1617553786_4" function="internal">
        <lane id=":1617553786_4_0" index="0" allow="bicycle" speed="5.56" length="6.49" width="2.00" shape="1024.22,715.85 1023.55,717.60 1023.48,718.92 1023.55,720.28 1023.33,722.20"/>
    </edge>
    <edge id=":1617553786_5" function="internal">
        <lane id=":1617553786_5_0" index="0" allow="bicycle" speed="2.94" length="3.07" width="2.00" shape="1024.22,715.85 1023.58,716.54 1023.01,716.71 1022.54,716.37 1022.15,715.50"/>
    </edge>
    <edge id=":1617553786_6" function="internal">
        <lane id=":1617553786_6_0" index="0" allow="bicycle" speed="5.95" length="4.54" width="2.00" shape="1019.02,718.55 1019.80,718.35 1020.58,717.77 1021.36,716.82 1022.15,715.50"/>
    </edge>
    <edge id=":1617553786_7" function="internal">
        <lane id=":1617553786_7_0" index="0" disallow="tram rail_urban rail rail_electric rail_fast ship container cable_car subway aircraft wheelchair scooter drone" speed="13.89" length="7.17" shape="1019.04,719.15 1021.17,719.15 1022.63,719.17 1024.09,719.09 1026.19,718.79"/>
    </edge>
    <edge id=":1617553786_8" function="internal">
        <lane id=":1617553786_8_0" index="0" allow="bicycle" speed="4.98" length="5.74" width="2.00" shape="1019.05,719.75 1021.13,719.86 1022.54,720.31 1023.27,721.09 1023.33,722.20"/>
    </edge>
    <edge id=":1617553835_0" function="internal">
        <lane id=":1617553835_0_0" index="0" allow="bicycle" speed="5.56" length="5.49" width="2.00" shape="1040.52,701.09 1038.97,701.59 1037.92,701.96 1036.89,702.39 1035.40,703.04"/>
    </edge>
    <edge id=":1617553835_1" function="internal">
        <lane id=":1617553835_1_0" index="0" allow="bicycle" speed="5.28" length="6.92" width="2.00" shape="1040.52,701.09 1038.87,701.28 1037.62,700.68 1036.76,699.28 1036.30,697.10"/>
    </edge>
    <edge id=":1617553835_2" function="internal">
        <lane id=":1617553835_2_0" index="0" allow="bicycle" speed="2.89" length="2.92" width="2.00" shape="1040.52,701.09 1039.66,700.84 1039.27,700.44 1039.36,699.89 1039.92,699.19"/>
    </edge>
    <edge id=":1617553835_3" function="internal">
        <lane id=":1617553835_3_0" index="0" allow="bicycle" speed="3.81" length="3.24" width="2.00" shape="1038.29,696.90 1038.50,698.06 1038.84,698.83 1039.31,699.20 1039.92,699.19"/>
    </edge>
    <edge id=":1617553835_4" function="internal">
        <lane id=":1617553835_4_0" index="0" allow="bicycle" speed="5.56" length="7.30" width="2.00" shape="1038.29,696.90 1038.29,699.03 1037.80,700.76 1036.84,702.10 1035.40,703.04"/>
    </edge>
    <edge id=":1617553835_5" function="internal">
        <lane id=":1617553835_5_0" index="0" allow="bicycle" speed="2.89" length="2.92" width="2.00" shape="1038.29,696.90 1037.87,697.69 1037.40,697.99 1036.87,697.80 1036.30,697.10"/>
    </edge>
    <edge id=":1617553835_6" function="internal">
        <lane id=":1617553835_6_0" index="0" allow="bicycle" speed="5.41" length="4.78" width="2.00" shape="1034.59,701.22 1035.46,700.62 1036.03,699.74 1036.32,698.56 1036.30,697.10"/>
    </edge>
    <edge id=":1617553835_7" function="internal">
        <lane id=":1617553835_7_0" index="0" allow="bicycle" speed="5.56" length="5.71" width="2.00" shape="1034.59,701.22 1036.14,700.53 1037.21,700.09 1038.31,699.70 1039.92,699.19"/>
    </edge>
    <edge id=":1617553835_8" function="internal">
        <lane id=":1617553835_8_0" index="0" allow="bicycle" speed="2.89" length="2.92" width="2.00" shape="1034.59,701.22 1035.48,701.37 1035.91,701.73 1035.88,702.28 1035.40,703.04"/>
    </edge>
    <edge id=":1668362202_0" function="internal">
        <lane id=":1668362202_0_0" index="0" allow="bicycle" speed="4.23" length="4.13" width="2.00" shape="1054.99,699.11 1053.84,699.25 1053.07,699.73 1052.71,700.56 1052.73,701.72"/>
    </edge>
    <edge id=":1668362202_1" function="internal">
        <lane id=":1668362202_1_0" index="0" allow="bicycle" speed="5.56" length="6.64" width="2.00" shape="1054.99,699.11 1053.02,699.07 1051.67,699.10 1050.33,699.22 1048.38,699.49"/>
    </edge>
    <edge id=":1668362202_2" function="internal">
        <lane id=":1668362202_2_0" index="0" allow="bicycle" speed="2.89" length="2.92" width="2.00" shape="1054.99,699.11 1054.25,698.59 1054.02,698.09 1054.28,697.60 1055.04,697.11"/>
    </edge>
    <edge id=":1668362202_3" function="internal">
        <lane id=":1668362202_3_0" index="0" allow="bicycle" speed="5.32" length="5.14" width="2.00" shape="1051.26,694.41 1051.60,695.56 1052.34,696.40 1053.49,696.91 1055.04,697.11"/>
    </edge>
    <edge id=":1668362202_4" function="internal">
        <lane id=":1668362202_4_0" index="0" disallow="tram rail_urban rail rail_electric rail_fast ship container cable_car subway aircraft wheelchair scooter drone" speed="13.89" length="7.51" shape="1050.66,694.47 1050.97,696.67 1051.32,698.16 1051.70,699.64 1052.14,701.82"/>
    </edge>
    <edge id=":1668362202_5" function="internal">
        <lane id=":1668362202_5_0" index="0" allow="bicycle" speed="5.40" length="5.74" width="2.00" shape="1050.06,694.53 1050.14,696.59 1049.89,698.10 1049.30,699.07 1048.38,699.49"/>
    </edge>
    <edge id=":1668362202_6" function="internal">
        <lane id=":1668362202_6_0" index="0" allow="bicycle" speed="5.56" length="6.97" width="2.00" shape="1048.09,697.51 1050.14,697.23 1051.55,697.10 1052.97,697.07 1055.04,697.11"/>
    </edge>
    <edge id=":1668362202_7" function="internal">
        <lane id=":1668362202_7_0" index="0" allow="bicycle" speed="5.75" length="7.08" width="2.00" shape="1048.09,697.51 1049.82,697.57 1051.17,698.29 1052.14,699.67 1052.73,701.72"/>
    </edge>
    <edge id=":1668362202_8" function="internal">
        <lane id=":1668362202_8_0" index="0" allow="bicycle" speed="2.89" length="2.92" width="2.00" shape="1048.09,697.51 1048.91,697.90 1049.23,698.36 1049.05,698.89 1048.38,699.49"/>
    </edge>
    <edge id=":1668362275_0" function="internal">
        <lane id=":1668362275_0_0" index="0" disallow="tram rail_urban rail rail_electric rail_fast ship container cable_car subway aircraft wheelchair scooter drone" speed="6.95" length="7.06" shape="1052.26,702.54 1052.79,704.26 1053.72,705.64 1055.07,706.68 1056.84,707.37"/>
    </edge>
    <edge id=":1668362275_1" function="internal">
        <lane id=":1668362275_1_0" index="0" disallow="tram rail_urban rail rail_electric rail_fast ship container cable_car subway aircraft wheelchair scooter drone" speed="13.31" length="7.23" shape="1049.09,706.77 1051.36,706.31 1052.96,706.33 1054.57,706.72 1056.84,707.37"/>
        <lane id=":1668362275_1_1" index="1" disallow="tram rail_urban rail rail_electric rail_fast ship container cable_car subway aircraft wheelchair scooter drone" speed="13.89" length="7.23" shape="1049.56,709.96 1051.49,709.90 1052.83,709.88 1054.14,710.03 1056.02,710.46"/>
    </edge>
    <edge id=":3113412373_0" function="internal">
        <lane id=":3113412373_0_0" index="0" disallow="tram rail_urban rail rail_electric rail_fast ship container cable_car subway aircraft wheelchair scooter drone" speed="6.61" length="9.42" shape="958.99,758.53 957.80,756.23 956.17,754.87 954.09,754.45 951.56,754.96"/>
    </edge>
    <edge id=":3113412373_1" function="internal">
        <lane id=":3113412373_1_0" index="0" disallow="tram rail_urban rail rail_electric rail_fast ship container cable_car subway aircraft wheelchair scooter drone" speed="13.89" length="14.42" shape="958.99,758.53 954.20,744.93"/>
    </edge>
    <edge id=":3113412373_2" function="internal">
        <lane id=":3113412373_2_0" index="0" allow="pedestrian delivery bicycle" speed="7.19" length="4.41" shape="958.99,758.53 958.57,755.66 958.80,754.16"/>
    </edge>
    <edge id=":3113412373_3" function="internal">
        <lane id=":3113412373_3_0" index="0" disallow="tram rail_urban rail rail_electric rail_fast ship container cable_car subway aircraft wheelchair scooter drone" speed="3.65" length="1.44" shape="958.99,758.53 959.35,757.13"/>
    </edge>
    <edge id=":3113412373_16" function="internal">
        <lane id=":3113412373_16_0" index="0" allow="pedestrian delivery bicycle" speed="7.19" length="7.06" shape="958.80,754.16 959.03,752.55 960.28,749.89 962.25,748.36"/>
    </edge>
    <edge id=":3113412373_17" function="internal">
        <lane id=":3113412373_17_0" index="0" disallow="tram rail_urban rail rail_electric rail_fast ship container cable_car subway aircraft wheelchair scooter drone" speed="3.65" length="3.23" shape="959.35,757.13 959.97,756.49 960.86,756.61 962.01,757.48"/>
    </edge>
    <edge id=":3113412373_4" function="internal">
        <lane id=":3113412373_4_0" index="0" allow="pedestrian delivery bicycle" speed="5.75" length="6.95" shape="963.22,751.41 962.03,752.15 961.42,753.40 961.42,755.18 962.01,757.48"/>
    </edge>
    <edge id=":3113412373_5" function="internal">
        <lane id=":3113412373_5_0" index="0" allow="pedestrian delivery bicycle" speed="9.72" length="12.20" shape="963.22,751.41 951.56,754.96"/>
    </edge>
    <edge id=":3113412373_6" function="internal">
        <lane id=":3113412373_6_0" index="0" allow="pedestrian delivery bicycle" speed="7.44" length="11.85" shape="963.22,751.41 960.72,751.29 958.05,749.84 955.71,747.55 954.20,744.93"/>
    </edge>
    <edge id=":3113412373_7" function="internal">
        <lane id=":3113412373_7_0" index="0" allow="pedestrian delivery bicycle" speed="3.65" length="4.67" shape="963.22,751.41 961.84,751.01 961.21,750.37 961.35,749.49 962.25,748.36"/>
    </edge>
    <edge id=":3113412373_8" function="internal">
        <lane id=":3113412373_8_0" index="0" allow="pedestrian delivery bicycle" speed="6.05" length="7.49" shape="957.22,743.85 958.26,746.20 959.45,747.73 960.78,748.45 962.25,748.36"/>
    </edge>
    <edge id=":3113412373_9" function="internal">
        <lane id=":3113412373_9_0" index="0" disallow="tram rail_urban rail rail_electric rail_fast ship container cable_car subway aircraft wheelchair scooter drone" speed="13.89" length="14.44" shape="957.22,743.85 962.01,757.48"/>
    </edge>
    <edge id=":3113412373_10" function="internal">
        <lane id=":3113412373_10_0" index="0" disallow="tram rail_urban rail rail_electric rail_fast ship container cable_car subway aircraft wheelchair scooter drone" speed="8.01" length="3.95" shape="957.22,743.85 957.94,747.58 957.90,747.73"/>
    </edge>
    <edge id=":3113412373_11" function="internal">
        <lane id=":3113412373_11_0" index="0" disallow="tram rail_urban rail rail_electric rail_fast ship container cable_car subway aircraft wheelchair scooter drone" speed="3.65" length="1.44" shape="957.22,743.85 956.86,745.25"/>
    </edge>
    <edge id=":3113412373_18" function="internal">
        <lane id=":3113412373_18_0" index="0" disallow="tram rail_urban rail rail_electric rail_fast ship container cable_car subway aircraft wheelchair scooter drone" speed="8.01" length="10.27" shape="957.90,747.73 957.24,750.67 955.11,753.13 951.56,754.96"/>
    </edge>
    <edge id=":3113412373_19" function="internal">
        <lane id=":3113412373_19_0" index="0" disallow="tram rail_urban rail rail_electric rail_fast ship container cable_car subway aircraft wheelchair scooter drone" speed="3.65" length="3.23" shape="956.86,745.25 956.24,745.90 955.36,745.79 954.20,744.93"/>
    </edge>
    <edge id=":3113412373_12" function="internal">