<?xml version="1.0" encoding="UTF-8"?>

<!-- generated on 2024-09-03 01:38:08 by Eclipse SUMO netconvert Version 1.20.0
<configuration xmlns:xsi="http://www.w3.org/2001/XMLSchema-instance" xsi:noNamespaceSchemaLocation="http://sumo.dlr.de/xsd/netconvertConfiguration.xsd">

    <input>
        <osm-files value="train_files/roundabout/hard/osm_files/map(102).osm"/>
    </input>

    <output>
        <output-file value="train_files/roundabout/hard/outputs/map(102)_dict/map(102)/map(102).net.xml"/>
    </output>

    <projection>
        <proj.utm value="true"/>
    </projection>

    <building_defaults>
        <default.junctions.keep-clear value="false"/>
    </building_defaults>

</configuration>
-->

<net version="1.20" junctionCornerDetail="5" limitTurnSpeed="5.50" xmlns:xsi="http://www.w3.org/2001/XMLSchema-instance" xsi:noNamespaceSchemaLocation="http://sumo.dlr.de/xsd/net_file.xsd">

    <location netOffset="-683789.02,-5948231.03" convBoundary="0.00,0.00,1353.96,706.22" origBoundary="23.780991,53.650191,23.801785,53.656365" projParameter="+proj=utm +zone=34 +ellps=WGS84 +datum=WGS84 +units=m +no_defs"/>

    <type id="highway.cycleway" priority="1" numLanes="1" speed="5.56" allow="bicycle" oneway="0" width="2.00"/>
    <type id="highway.footway" priority="1" numLanes="1" speed="2.78" allow="pedestrian" oneway="1" width="2.00"/>
    <type id="highway.primary" priority="12" numLanes="2" speed="27.78" disallow="tram rail_urban rail rail_electric rail_fast ship container cable_car subway aircraft wheelchair scooter drone" oneway="0"/>
    <type id="highway.primary_link" priority="7" numLanes="1" speed="22.22" disallow="tram rail_urban rail rail_electric rail_fast ship container cable_car subway aircraft wheelchair scooter drone" oneway="0"/>
    <type id="highway.service" priority="1" numLanes="1" speed="5.56" allow="pedestrian delivery bicycle" oneway="0"/>
    <type id="railway.rail" priority="20" numLanes="1" speed="44.44" allow="rail" oneway="1"/>

    <edge id=":10029219872_0" function="internal">
        <lane id=":10029219872_0_0" index="0" disallow="tram rail_urban rail rail_electric rail_fast ship container cable_car subway aircraft wheelchair scooter drone" speed="16.67" length="0.10" shape="756.18,342.10 756.18,342.10"/>
        <lane id=":10029219872_0_1" index="1" disallow="tram rail_urban rail rail_electric rail_fast ship container cable_car subway aircraft wheelchair scooter drone" speed="16.67" length="0.10" shape="754.86,339.19 754.86,339.19"/>
    </edge>
    <edge id=":10029219873_0" function="internal">
        <lane id=":10029219873_0_0" index="0" disallow="tram rail_urban rail rail_electric rail_fast ship container cable_car subway aircraft wheelchair scooter drone" speed="16.67" length="0.10" shape="816.25,292.44 816.25,292.44"/>
        <lane id=":10029219873_0_1" index="1" disallow="tram rail_urban rail rail_electric rail_fast ship container cable_car subway aircraft wheelchair scooter drone" speed="16.67" length="0.10" shape="817.65,295.32 817.65,295.32"/>
    </edge>
    <edge id=":1523206248_0" function="internal">
        <lane id=":1523206248_0_0" index="0" disallow="tram rail_urban rail rail_electric rail_fast ship container cable_car subway aircraft wheelchair scooter drone" speed="16.67" length="5.23" shape="834.10,271.61 835.65,271.67 836.72,271.67 837.78,271.60 839.32,271.47"/>
    </edge>
    <edge id=":1523206249_0" function="internal">
        <lane id=":1523206249_0_0" index="0" disallow="tram rail_urban rail rail_electric rail_fast ship container cable_car subway aircraft wheelchair scooter drone" speed="16.67" length="9.85" shape="857.98,269.54 860.90,269.37 862.95,269.34 864.91,269.01 867.60,267.96"/>
    </edge>
    <edge id=":1523206249_1" function="internal">
        <lane id=":1523206249_1_0" index="0" disallow="tram rail_urban rail rail_electric rail_fast ship container cable_car subway aircraft wheelchair scooter drone" speed="16.67" length="10.45" shape="858.87,273.03 861.79,272.16 863.94,272.02 866.08,271.84 868.95,270.86"/>
        <lane id=":1523206249_1_1" index="1" disallow="tram rail_urban rail rail_electric rail_fast ship container cable_car subway aircraft wheelchair scooter drone" speed="16.67" length="10.45" shape="860.11,275.98 863.07,275.09 865.24,274.94 867.40,274.75 870.31,273.76"/>
    </edge>
    <edge id=":1523214312_0" function="internal">
        <lane id=":1523214312_0_0" index="0" disallow="tram rail_urban rail rail_electric rail_fast ship container cable_car subway aircraft wheelchair scooter drone" speed="16.67" length="19.87" shape="823.42,368.23 817.84,367.60 813.93,367.10 810.14,367.36 804.91,369.01"/>
        <lane id=":1523214312_0_1" index="1" disallow="tram rail_urban rail rail_electric rail_fast ship container cable_car subway aircraft wheelchair scooter drone" speed="16.67" length="19.87" shape="823.26,365.01 817.38,364.37 813.26,363.92 809.26,364.26 803.74,366.03"/>
        <lane id=":1523214312_0_2" index="2" disallow="tram rail_urban rail rail_electric rail_fast ship container cable_car subway aircraft wheelchair scooter drone" speed="16.67" length="19.87" shape="823.11,361.79 816.92,361.15 812.58,360.74 808.37,361.16 802.57,363.05"/>
    </edge>
    <edge id=":1523214312_3" function="internal">
        <lane id=":1523214312_3_0" index="0" disallow="tram rail_urban rail rail_electric rail_fast ship container cable_car subway aircraft wheelchair scooter drone" speed="16.67" length="20.12" shape="821.71,357.57 817.54,362.01 814.30,364.71 810.57,366.71 804.91,369.01"/>
        <lane id=":1523214312_3_1" index="1" disallow="tram rail_urban rail rail_electric rail_fast ship container cable_car subway aircraft wheelchair scooter drone" speed="16.67" length="20.12" shape="819.99,354.71 815.94,359.06 812.83,361.76 809.23,363.76 803.74,366.03"/>
        <lane id=":1523214312_3_2" index="2" disallow="tram rail_urban rail rail_electric rail_fast ship container cable_car subway aircraft wheelchair scooter drone" speed="16.67" length="20.12" shape="818.26,351.85 814.34,356.11 811.35,358.80 807.90,360.81 802.57,363.05"/>
    </edge>
    <edge id=":1523214363_0" function="internal">
        <lane id=":1523214363_0_0" index="0" disallow="tram rail_urban rail rail_electric rail_fast ship container cable_car subway aircraft wheelchair scooter drone" speed="16.67" length="5.38" shape="728.16,262.70 733.17,263.78"/>
        <lane id=":1523214363_0_1" index="1" disallow="tram rail_urban rail rail_electric rail_fast ship container cable_car subway aircraft wheelchair scooter drone" speed="16.67" length="5.38" shape="727.36,265.79 732.62,266.94"/>
        <lane id=":1523214363_0_2" index="2" disallow="tram rail_urban rail rail_electric rail_fast ship container cable_car subway aircraft wheelchair scooter drone" speed="16.67" length="5.38" shape="726.55,268.89 732.06,270.09"/>
    </edge>
    <edge id=":1523214373_0" function="internal">
        <lane id=":1523214373_0_0" index="0" disallow="tram rail_urban rail rail_electric rail_fast ship container cable_car subway aircraft wheelchair scooter drone" speed="16.67" length="36.09" shape="724.59,330.29 727.23,321.30 728.00,312.45 726.91,303.74 723.96,295.17"/>
    </edge>
    <edge id=":1523214373_1" function="internal">
        <lane id=":1523214373_1_0" index="0" disallow="tram rail_urban rail rail_electric rail_fast ship container cable_car subway aircraft wheelchair scooter drone" speed="16.67" length="37.44" shape="724.59,330.29 726.55,322.63 727.84,313.87 729.78,304.38 733.70,294.54"/>
        <lane id=":1523214373_1_1" index="1" disallow="tram rail_urban rail rail_electric rail_fast ship container cable_car subway aircraft wheelchair scooter drone" speed="16.67" length="37.44" shape="727.49,331.65 729.52,323.88 730.94,314.87 733.02,305.13 737.00,295.17"/>
    </edge>
    <edge id=":1523214373_3" function="internal">
        <lane id=":1523214373_3_0" index="0" disallow="tram rail_urban rail rail_electric rail_fast ship container cable_car subway aircraft wheelchair scooter drone" speed="16.67" length="37.35" shape="730.83,331.56 730.09,322.90 729.89,312.76 729.25,302.76 727.18,294.52"/>
    </edge>
    <edge id=":1523214373_4" function="internal">
        <lane id=":1523214373_4_0" index="0" disallow="tram rail_urban rail rail_electric rail_fast ship container cable_car subway aircraft wheelchair scooter drone" speed="16.67" length="37.14" shape="730.83,331.56 730.04,323.58 730.57,314.62 732.77,305.04 737.00,295.17"/>
        <lane id=":1523214373_4_1" index="1" disallow="tram rail_urban rail rail_electric rail_fast ship container cable_car subway aircraft wheelchair scooter drone" speed="16.67" length="37.14" shape="734.04,331.32 733.26,323.48 733.82,314.82 736.05,305.54 740.29,295.81"/>
    </edge>
    <edge id=":1523214389_0" function="internal">
        <lane id=":1523214389_0_0" index="0" disallow="tram rail_urban rail rail_electric rail_fast ship container cable_car subway aircraft wheelchair scooter drone" speed="16.67" length="5.86" shape="719.59,288.50 718.42,287.43 717.36,287.01 716.25,286.64 714.93,285.71"/>
        <lane id=":1523214389_0_1" index="1" disallow="tram rail_urban rail rail_electric rail_fast ship container cable_car subway aircraft wheelchair scooter drone" speed="16.67" length="5.86" shape="722.10,286.52 720.85,285.35 719.73,284.86 718.55,284.42 717.15,283.40"/>
        <lane id=":1523214389_0_2" index="2" disallow="tram rail_urban rail rail_electric rail_fast ship container cable_car subway aircraft wheelchair scooter drone" speed="16.67" length="5.86" shape="722.10,286.52 721.18,284.96 720.84,283.70 720.45,282.49 719.36,281.09"/>
    </edge>
    <edge id=":1523214403_0" function="internal">
        <lane id=":1523214403_0_0" index="0" disallow="tram rail_urban rail rail_electric rail_fast ship container cable_car subway aircraft wheelchair scooter drone" speed="16.67" length="14.06" shape="798.00,265.23 802.29,266.10 805.33,267.55 808.00,268.98 811.18,269.82"/>
    </edge>
    <edge id=":1523214403_1" function="internal">
        <lane id=":1523214403_1_0" index="0" disallow="tram rail_urban rail rail_electric rail_fast ship container cable_car subway aircraft wheelchair scooter drone" speed="16.67" length="13.88" shape="797.75,268.42 801.75,269.02 804.36,270.05 806.84,271.54 810.48,273.50"/>
        <lane id=":1523214403_1_1" index="1" disallow="tram rail_urban rail rail_electric rail_fast ship container cable_car subway aircraft wheelchair scooter drone" speed="15.51" length="13.52" shape="797.51,271.61 801.44,272.07 804.07,272.90 806.45,274.39 809.63,276.82"/>
    </edge>
    <edge id=":1524383799_0" function="internal">
        <lane id=":1524383799_0_0" index="0" allow="pedestrian delivery bicycle" speed="5.06" length="4.98" shape="642.84,212.64 642.32,213.89 642.32,215.02 642.84,216.02 643.89,216.89"/>
    </edge>
    <edge id=":1524383799_1" function="internal">
        <lane id=":1524383799_1_0" index="0" disallow="tram rail_urban rail rail_electric rail_fast ship container cable_car subway aircraft wheelchair scooter drone" speed="16.67" length="6.56" shape="637.80,214.92 639.24,216.16 639.99,217.30 640.75,218.42 642.22,219.62"/>
        <lane id=":1524383799_1_1" index="1" disallow="tram rail_urban rail rail_electric rail_fast ship container cable_car subway aircraft wheelchair scooter drone" speed="16.67" length="6.56" shape="636.05,217.59 637.51,218.85 638.27,220.00 639.05,221.13 640.54,222.34"/>
    </edge>
    <edge id=":1538318381_0" function="internal">
        <lane id=":1538318381_0_0" index="0" disallow="tram rail_urban rail rail_electric rail_fast ship container cable_car subway aircraft wheelchair scooter drone" speed="16.67" length="12.22" shape="840.79,310.45 839.55,313.60 838.75,315.78 838.21,318.03 837.76,321.37"/>
        <lane id=":1538318381_0_1" index="1" disallow="tram rail_urban rail rail_electric rail_fast ship container cable_car subway aircraft wheelchair scooter drone" speed="16.67" length="12.22" shape="838.55,308.75 836.74,312.17 835.68,314.61 835.07,317.20 834.58,321.02"/>
    </edge>
    <edge id=":1538318381_2" function="internal">
        <lane id=":1538318381_2_0" index="0" disallow="tram rail_urban rail rail_electric rail_fast ship container cable_car subway aircraft wheelchair scooter drone" speed="16.67" length="12.08" shape="835.19,308.64 835.49,312.30 835.40,314.83 835.06,317.35 834.58,321.02"/>
        <lane id=":1538318381_2_1" index="1" disallow="tram rail_urban rail rail_electric rail_fast ship container cable_car subway aircraft wheelchair scooter drone" speed="16.67" length="12.08" shape="832.02,309.05 832.29,312.49 832.20,314.86 831.86,317.23 831.40,320.68"/>
    </edge>
    <edge id=":1538318386_0" function="internal">
        <lane id=":1538318386_0_0" index="0" disallow="tram rail_urban rail rail_electric rail_fast ship container cable_car subway aircraft wheelchair scooter drone" speed="16.67" length="5.84" shape="736.64,364.31 734.96,364.22 733.80,364.18 732.64,364.18 730.95,364.24"/>
        <lane id=":1538318386_0_1" index="1" disallow="tram rail_urban rail rail_electric rail_fast ship container cable_car subway aircraft wheelchair scooter drone" speed="16.67" length="5.84" shape="736.82,361.11 735.05,361.02 733.83,360.97 732.62,360.98 730.84,361.04"/>
    </edge>
    <edge id=":1538318389_0" function="internal">
        <lane id=":1538318389_0_0" index="0" disallow="tram rail_urban rail rail_electric rail_fast ship container cable_car subway aircraft wheelchair scooter drone" speed="16.67" length="15.72" shape="757.27,368.12 752.86,366.60 749.80,365.61 746.67,364.99 742.04,364.61"/>
        <lane id=":1538318389_0_1" index="1" disallow="tram rail_urban rail rail_electric rail_fast ship container cable_car subway aircraft wheelchair scooter drone" speed="16.67" length="16.19" shape="758.28,365.09 753.73,363.51 750.59,362.48 747.36,361.84 742.60,361.43"/>
    </edge>
    <edge id=":1538318389_2" function="internal">
        <lane id=":1538318389_2_0" index="0" disallow="tram rail_urban rail rail_electric rail_fast ship container cable_car subway aircraft wheelchair scooter drone" speed="16.67" length="16.20" shape="758.28,365.09 753.73,363.42 750.80,361.80 748.23,359.60 744.76,356.16"/>
        <lane id=":1538318389_2_1" index="1" disallow="tram rail_urban rail rail_electric rail_fast ship container cable_car subway aircraft wheelchair scooter drone" speed="16.67" length="16.20" shape="759.28,362.05 754.90,360.40 752.11,358.77 749.66,356.57 746.33,353.21"/>
    </edge>
    <edge id=":1538318390_0" function="internal">
        <lane id=":1538318390_0_0" index="0" disallow="tram rail_urban rail rail_electric rail_fast ship container cable_car subway aircraft wheelchair scooter drone" speed="13.42" length="16.75" shape="836.95,328.01 836.85,331.36 837.69,335.06 839.46,339.12 842.18,343.52"/>
        <lane id=":1538318390_0_1" index="1" disallow="tram rail_urban rail rail_electric rail_fast ship container cable_car subway aircraft wheelchair scooter drone" speed="13.47" length="16.87" shape="836.95,328.01 836.34,333.08 836.46,337.50 837.30,341.26 838.87,344.37"/>
        <lane id=":1538318390_0_2" index="2" disallow="tram rail_urban rail rail_electric rail_fast ship container cable_car subway aircraft wheelchair scooter drone" speed="13.67" length="17.39" shape="836.95,328.01 835.83,334.81 835.23,339.94 835.14,343.41 835.56,345.22"/>
    </edge>
    <edge id=":1538318390_3" function="internal">
        <lane id=":1538318390_3_0" index="0" disallow="tram rail_urban rail rail_electric rail_fast ship container cable_car subway aircraft wheelchair scooter drone" speed="16.67" length="18.06" shape="836.95,328.01 835.88,333.33 834.81,336.89 833.32,340.33 830.98,345.24"/>
        <lane id=":1538318390_3_1" index="1" disallow="tram rail_urban rail rail_electric rail_fast ship container cable_car subway aircraft wheelchair scooter drone" speed="16.67" length="18.06" shape="833.80,327.44 832.91,332.74 832.10,336.38 830.67,339.77 827.88,344.31"/>
        <lane id=":1538318390_3_2" index="2" disallow="tram rail_urban rail rail_electric rail_fast ship container cable_car subway aircraft wheelchair scooter drone" speed="16.67" length="18.06" shape="830.66,326.87 829.75,332.06 828.90,335.60 827.44,338.90 824.68,343.34"/>
    </edge>
    <edge id=":1542818413_0" function="internal">
        <lane id=":1542818413_0_0" index="0" disallow="tram rail_urban rail rail_electric rail_fast ship container cable_car subway aircraft wheelchair scooter drone" speed="12.93" length="14.27" shape="714.57,339.91 718.37,338.07 720.91,336.46 722.77,334.22 724.51,330.48"/>
        <lane id=":1542818413_0_1" index="1" disallow="tram rail_urban rail rail_electric rail_fast ship container cable_car subway aircraft wheelchair scooter drone" speed="13.64" length="15.91" shape="714.57,339.91 719.07,338.25 722.51,337.28 725.19,335.61 727.41,331.84"/>
    </edge>
    <edge id=":1542818413_2" function="internal">
        <lane id=":1542818413_2_0" index="0" disallow="tram rail_urban rail rail_electric rail_fast ship container cable_car subway aircraft wheelchair scooter drone" speed="16.67" length="15.99" shape="715.97,342.79 720.11,340.51 722.77,338.61 725.42,336.72 729.56,334.43"/>
        <lane id=":1542818413_2_1" index="1" disallow="tram rail_urban rail rail_electric rail_fast ship container cable_car subway aircraft wheelchair scooter drone" speed="16.67" length="15.99" shape="717.36,345.67 721.51,343.39 724.16,341.49 726.81,339.60 730.96,337.31"/>
    </edge>
    <edge id=":1542818416_0" function="internal">
        <lane id=":1542818416_0_0" index="0" disallow="tram rail_urban rail rail_electric rail_fast ship container cable_car subway aircraft wheelchair scooter drone" speed="16.67" length="25.35" shape="722.50,364.71 715.78,365.26 709.97,365.48 704.34,366.29 698.15,368.58"/>
        <lane id=":1542818416_0_1" index="1" disallow="tram rail_urban rail rail_electric rail_fast ship container cable_car subway aircraft wheelchair scooter drone" speed="16.67" length="25.35" shape="722.07,361.54 715.19,362.14 709.05,362.46 703.08,363.38 696.73,365.71"/>
    </edge>
    <edge id=":1542818416_2" function="internal">
        <lane id=":1542818416_2_0" index="0" disallow="tram rail_urban rail rail_electric rail_fast ship container cable_car subway aircraft wheelchair scooter drone" speed="16.67" length="25.26" shape="721.07,358.08 698.15,368.58"/>
        <lane id=":1542818416_2_1" index="1" disallow="tram rail_urban rail rail_electric rail_fast ship container cable_car subway aircraft wheelchair scooter drone" speed="16.67" length="25.26" shape="719.75,355.17 696.73,365.71"/>
    </edge>
    <edge id=":1955862318_0" function="internal">
        <lane id=":1955862318_0_0" index="0" disallow="tram rail_urban rail rail_electric rail_fast ship container cable_car subway aircraft wheelchair scooter drone" speed="16.67" length="13.84" shape="821.92,283.25 824.60,286.47 826.35,288.73 827.95,291.11 830.13,294.67"/>
        <lane id=":1955862318_0_1" index="1" disallow="tram rail_urban rail rail_electric rail_fast ship container cable_car subway aircraft wheelchair scooter drone" speed="16.67" length="13.84" shape="819.47,285.31 822.05,288.41 823.75,290.59 825.29,292.89 827.39,296.33"/>
    </edge>
    <edge id=":1955862318_2" function="internal">
        <lane id=":1955862318_2_0" index="0" disallow="tram rail_urban rail rail_electric rail_fast ship container cable_car subway aircraft wheelchair scooter drone" speed="16.67" length="13.86" shape="818.13,291.53 830.60,285.49"/>
        <lane id=":1955862318_2_1" index="1" disallow="tram rail_urban rail rail_electric rail_fast ship container cable_car subway aircraft wheelchair scooter drone" speed="16.67" length="13.86" shape="819.53,294.41 832.00,288.37"/>
    </edge>
    <edge id=":1955862319_0" function="internal">
        <lane id=":1955862319_0_0" index="0" disallow="tram rail_urban rail rail_electric rail_fast ship container cable_car subway aircraft wheelchair scooter drone" speed="16.67" length="10.67" shape="836.41,305.61 826.70,310.02"/>
        <lane id=":1955862319_0_1" index="1" disallow="tram rail_urban rail rail_electric rail_fast ship container cable_car subway aircraft wheelchair scooter drone" speed="16.67" length="10.67" shape="835.09,302.69 825.37,307.11"/>
    </edge>
    <edge id=":1955862319_2" function="internal">
        <lane id=":1955862319_2_0" index="0" disallow="tram rail_urban rail rail_electric rail_fast ship container cable_car subway aircraft wheelchair scooter drone" speed="16.67" length="10.16" shape="831.78,298.57 832.96,301.46 833.91,303.41 834.64,305.40 835.17,308.44"/>
        <lane id=":1955862319_2_1" index="1" disallow="tram rail_urban rail rail_electric rail_fast ship container cable_car subway aircraft wheelchair scooter drone" speed="16.67" length="10.16" shape="828.77,299.64 829.88,302.34 830.78,304.15 831.49,306.01 832.00,308.85"/>
    </edge>
    <edge id=":1955862319_4" function="internal">
        <lane id=":1955862319_4_0" index="0" disallow="tram rail_urban rail rail_electric rail_fast ship container cable_car subway aircraft wheelchair scooter drone" speed="6.77" length="3.91" shape="828.77,299.64 829.23,302.02 828.94,303.47"/>
    </edge>
    <edge id=":1955862319_5" function="internal">
        <lane id=":1955862319_5_0" index="0" disallow="tram rail_urban rail rail_electric rail_fast ship container cable_car subway aircraft wheelchair scooter drone" speed="6.77" length="5.28" shape="828.94,303.47 828.82,304.06 827.53,305.76 825.37,307.11"/>
    </edge>
    <edge id=":1955862320_0" function="internal">
        <lane id=":1955862320_0_0" index="0" disallow="tram rail_urban rail rail_electric rail_fast ship container cable_car subway aircraft wheelchair scooter drone" speed="16.67" length="9.27" shape="734.16,340.96 732.89,338.34 732.06,336.50 731.46,334.60 730.87,331.75"/>
        <lane id=":1955862320_0_1" index="1" disallow="tram rail_urban rail rail_electric rail_fast ship container cable_car subway aircraft wheelchair scooter drone" speed="16.67" length="9.27" shape="737.08,339.64 735.94,337.32 735.18,335.71 734.62,334.04 734.08,331.52"/>
    </edge>
    <edge id=":1955862320_2" function="internal">
        <lane id=":1955862320_2_0" index="0" disallow="tram rail_urban rail rail_electric rail_fast ship container cable_car subway aircraft wheelchair scooter drone" speed="6.36" length="3.21" shape="737.08,339.64 736.51,337.60 736.71,336.53"/>
    </edge>
    <edge id=":1955862320_5" function="internal">
        <lane id=":1955862320_5_0" index="0" disallow="tram rail_urban rail rail_electric rail_fast ship container cable_car subway aircraft wheelchair scooter drone" speed="6.36" length="5.31" shape="736.71,336.53 736.85,335.78 738.09,334.19 740.23,332.82"/>
    </edge>
    <edge id=":1955862320_3" function="internal">
        <lane id=":1955862320_3_0" index="0" disallow="tram rail_urban rail rail_electric rail_fast ship container cable_car subway aircraft wheelchair scooter drone" speed="16.67" length="10.10" shape="729.74,334.35 738.83,329.94"/>
        <lane id=":1955862320_3_1" index="1" disallow="tram rail_urban rail rail_electric rail_fast ship container cable_car subway aircraft wheelchair scooter drone" speed="16.67" length="10.10" shape="731.14,337.23 740.23,332.82"/>
    </edge>
    <edge id=":1955862321_0" function="internal">
        <lane id=":1955862321_0_0" index="0" disallow="tram rail_urban rail rail_electric rail_fast ship container cable_car subway aircraft wheelchair scooter drone" speed="16.67" length="13.00" shape="742.76,354.21 740.07,351.25 738.35,349.10 736.95,346.75 735.20,343.16"/>
        <lane id=":1955862321_0_1" index="1" disallow="tram rail_urban rail rail_electric rail_fast ship container cable_car subway aircraft wheelchair scooter drone" speed="16.67" length="13.00" shape="745.12,352.04 742.62,349.30 741.02,347.31 739.72,345.12 738.09,341.79"/>
    </edge>
    <edge id=":1955862321_2" function="internal">
        <lane id=":1955862321_2_0" index="0" disallow="tram rail_urban rail rail_electric rail_fast ship container cable_car subway aircraft wheelchair scooter drone" speed="16.67" length="13.46" shape="746.59,346.46 734.34,352.04"/>
        <lane id=":1955862321_2_1" index="1" disallow="tram rail_urban rail rail_electric rail_fast ship container cable_car subway aircraft wheelchair scooter drone" speed="16.67" length="13.46" shape="745.27,343.55 733.01,349.13"/>
    </edge>
    <edge id=":2369278453_0" function="internal">
        <lane id=":2369278453_0_0" index="0" allow="bicycle" speed="2.89" length="2.93" width="2.00" shape="713.64,328.81 713.07,329.52 712.55,329.72 712.07,329.42 711.65,328.63"/>
    </edge>
    <edge id=":2371288943_0" function="internal">
        <lane id=":2371288943_0_0" index="0" disallow="tram rail_urban rail rail_electric rail_fast ship container cable_car subway aircraft wheelchair scooter drone" speed="16.67" length="6.34" shape="846.15,348.70 847.22,350.00 847.97,350.88 848.80,351.68 850.10,352.75"/>
        <lane id=":2371288943_0_1" index="1" disallow="tram rail_urban rail rail_electric rail_fast ship container cable_car subway aircraft wheelchair scooter drone" speed="16.67" length="6.34" shape="843.68,350.73 844.87,352.19 845.72,353.16 846.65,354.05 848.09,355.25"/>
        <lane id=":2371288943_0_2" index="2" disallow="tram rail_urban rail rail_electric rail_fast ship container cable_car subway aircraft wheelchair scooter drone" speed="16.67" length="6.34" shape="841.21,352.76 842.52,354.37 843.46,355.44 844.49,356.42 846.09,357.74"/>
    </edge>
    <edge id=":2371288947_0" function="internal">
        <lane id=":2371288947_0_0" index="0" disallow="tram rail_urban rail rail_electric rail_fast ship container cable_car subway aircraft wheelchair scooter drone" speed="16.67" length="6.50" shape="839.64,371.39 833.34,369.87"/>
        <lane id=":2371288947_0_1" index="1" disallow="tram rail_urban rail rail_electric rail_fast ship container cable_car subway aircraft wheelchair scooter drone" speed="16.67" length="6.50" shape="840.40,368.29 834.09,366.75"/>
        <lane id=":2371288947_0_2" index="2" disallow="tram rail_urban rail rail_electric rail_fast ship container cable_car subway aircraft wheelchair scooter drone" speed="16.67" length="6.50" shape="841.16,365.18 834.83,363.64"/>
    </edge>
    <edge id=":2371288962_0" function="internal">
        <lane id=":2371288962_0_0" index="0" disallow="tram rail_urban rail rail_electric rail_fast ship container cable_car subway aircraft wheelchair scooter drone" speed="16.67" length="0.28" shape="398.10,497.86 398.38,497.72"/>
        <lane id=":2371288962_0_1" index="1" disallow="tram rail_urban rail rail_electric rail_fast ship container cable_car subway aircraft wheelchair scooter drone" speed="16.67" length="0.28" shape="399.53,500.72 399.75,500.62"/>
    </edge>
    <edge id=":2995112251_0" function="internal">
        <lane id=":2995112251_0_0" index="0" allow="pedestrian delivery bicycle" speed="3.65" length="4.67" shape="1.32,147.91 -0.02,148.45 -0.90,148.33 -1.34,147.54 -1.32,146.10"/>
    </edge>
    <edge id=":320743692_0" function="internal">
        <lane id=":320743692_0_0" index="0" allow="pedestrian delivery bicycle" speed="3.65" length="4.67" shape="1023.53,236.81 1024.96,237.01 1025.66,237.56 1025.65,238.45 1024.91,239.69"/>
    </edge>
    <edge id=":320752451_0" function="internal">
        <lane id=":320752451_0_0" index="0" allow="pedestrian delivery bicycle" speed="3.65" length="4.67" shape="990.10,342.26 991.51,342.53 992.19,343.11 992.14,344.00 991.34,345.20"/>
    </edge>
    <edge id=":3456209657_0" function="internal">
        <lane id=":3456209657_0_0" index="0" disallow="tram rail_urban rail rail_electric rail_fast ship container cable_car subway aircraft wheelchair scooter drone" speed="16.67" length="0.41" shape="742.67,354.11 742.89,354.35"/>
        <lane id=":3456209657_0_1" index="1" disallow="tram rail_urban rail rail_electric rail_fast ship container cable_car subway aircraft wheelchair scooter drone" speed="16.67" length="0.41" shape="744.92,351.83 745.25,352.19"/>
    </edge>
    <edge id=":3456209658_0" function="internal">
        <lane id=":3456209658_0_0" index="0" disallow="tram rail_urban rail rail_electric rail_fast ship container cable_car subway aircraft wheelchair scooter drone" speed="16.67" length="0.71" shape="819.06,280.01 819.31,280.20 819.47,280.34 819.62,280.50 819.82,280.74"/>
        <lane id=":3456209658_0_1" index="1" disallow="tram rail_urban rail rail_electric rail_fast ship container cable_car subway aircraft wheelchair scooter drone" speed="16.67" length="0.71" shape="817.11,282.55 817.20,282.61 817.25,282.66 817.30,282.71 817.37,282.79"/>
    </edge>
    <edge id=":3456209668_0" function="internal">
        <lane id=":3456209668_0_0" index="0" disallow="tram rail_urban rail rail_electric rail_fast ship container cable_car subway aircraft wheelchair scooter drone" speed="16.67" length="26.45" shape="747.05,265.65 754.75,266.39 760.07,266.61 765.36,266.20 773.02,265.08"/>
        <lane id=":3456209668_0_1" index="1" disallow="tram rail_urban rail rail_electric rail_fast ship container cable_car subway aircraft wheelchair scooter drone" speed="16.67" length="26.45" shape="747.21,268.88 755.01,269.63 760.40,269.82 765.76,269.39 773.52,268.24"/>
        <lane id=":3456209668_0_2" index="2" disallow="tram rail_urban rail rail_electric rail_fast ship container cable_car subway aircraft wheelchair scooter drone" speed="16.67" length="26.45" shape="747.37,272.12 755.27,272.86 760.73,273.03 766.16,272.57 774.01,271.40"/>
    </edge>
    <edge id=":3456209668_3" function="internal">