<?xml version="1.0" encoding="UTF-8"?>

<!-- generated on 2024-09-03 01:37:40.913837 by randomTrips.py UNKNOWN
<configuration>
    <net-file value="train_files/roundabout/middle/outputs/map(103)_dict/map(103)/map(103).net.xml"/>
    <output-trip-file value="train_files/roundabout/middle/outputs/map(103)_dict/map(103)/map(103).trips.xml"/>
    <fringe-factor value="max"/>
    <validate value="True"/>
    <period value="1.2"/>
</configuration>
-->

<!-- generated on 2024-09-03 01:37:40 by Eclipse SUMO duarouter Version 1.20.0
<configuration xmlns:xsi="http://www.w3.org/2001/XMLSchema-instance" xsi:noNamespaceSchemaLocation="http://sumo.dlr.de/xsd/duarouterConfiguration.xsd">

    <input>
        <net-file value="train_files/roundabout/middle/outputs/map(103)_dict/map(103)/map(103).net.xml"/>
        <route-files value="train_files/roundabout/middle/outputs/map(103)_dict/map(103)/map(103).trips.xml"/>
    </input>

    <output>
        <output-file value="train_files/roundabout/middle/outputs/map(103)_dict/map(103)/map(103).trips.xml.tmp"/>
        <alternatives-output value="NUL"/>
        <write-trips value="true"/>
    </output>

    <time>
        <begin value="0"/>
        <end value="3600"/>
    </time>

    <report>
        <no-warnings value="true"/>
        <ignore-errors value="true"/>
        <no-step-log value="true"/>
    </report>

</configuration>
-->

<routes xmlns:xsi="http://www.w3.org/2001/XMLSchema-instance" xsi:noNamespaceSchemaLocation="http://sumo.dlr.de/xsd/routes_file.xsd">
    <trip id="1" depart="1.20" from="25491351#0" to="23058448"/>
    <trip id="2" depart="2.40" from="540392791#0" to="30969502#1"/>
    <trip id="7" depart="8.40" from="35829777#0" to="29999825#4"/>
    <trip id="10" depart="12.00" from="68546136#0" to="30969502#1"/>
    <trip id="11" depart="13.20" from="279297825#0" to="23058448"/>
    <trip id="13" depart="15.60" from="-23058439" to="23058439"/>
    <trip id="14" depart="16.80" from="68546136#0" to="29999825#4"/>
    <trip id="15" depart="18.00" from="68546136#0" to="30969502#1"/>
    <trip id="17" depart="20.40" from="279297825#0" to="29999825#4"/>
    <trip id="18" depart="21.60" from="68546136#0" to="29999825#4"/>
    <trip id="19" depart="22.80" from="68546136#0" to="29999825#4"/>
    <trip id="21" depart="25.20" from="25491351#0" to="25491237#4"/>
    <trip id="24" depart="28.80" from="35829777#0" to="25491237#4"/>
    <trip id="25" depart="30.00" from="279297825#0" to="23058448"/>
    <trip id="27" depart="32.40" from="35829777#0" to="29999825#4"/>
    <trip id="31" depart="37.20" from="35829777#0" to="30969502#1"/>
    <trip id="32" depart="38.40" from="68546136#0" to="35829592#3"/>
    <trip id="34" depart="40.80" from="25491351#0" to="25491237#4"/>
    <trip id="35" depart="42.00" from="-35829816" to="35829816"/>
    <trip id="36" depart="43.20" from="68546136#0" to="25491237#4"/>
    <trip id="37" depart="44.40" from="35829777#0" to="278015286"/>
    <trip id="39" depart="46.80" from="25491351#0" to="23058448"/>
    <trip id="40" depart="48.00" from="35829777#0" to="25491237#4"/>
    <trip id="42" depart="50.40" from="279297825#0" to="23058448"/>
    <trip id="43" depart="51.60" from="68546140" to="29999825#4"/>
    <trip id="44" depart="52.80" from="-23058439" to="23058439"/>
    <trip id="46" depart="55.20" from="68546136#0" to="278015286"/>
    <trip id="48" depart="57.60" from="68546140" to="29999825#4"/>
    <trip id="51" depart="61.20" from="540392791#0" to="29999825#4"/>
    <trip id="52" depart="62.40" from="25491351#0" to="30969502#1"/>
    <trip id="55" depart="66.00" from="68546136#0" to="25491237#4"/>
    <trip id="56" depart="67.20" from="34080354" to="23058448"/>
    <trip id="58" depart="69.60" from="25491351#0" to="30969502#1"/>
    <trip id="59" depart="70.80" from="35829777#0" to="23058448"/>
    <trip id="60" depart="72.00" from="540392791#0" to="29999825#4"/>
    <trip id="61" depart="73.20" from="68546136#0" to="29999825#4"/>
    <trip id="63" depart="75.60" from="-23058439" to="35829816"/>
    <trip id="64" depart="76.80" from="68546136#0" to="35829592#3"/>
    <trip id="69" depart="82.80" from="540392791#0" to="23058448"/>
    <trip id="70" depart="84.00" from="34080354" to="29999825#4"/>
    <trip id="71" depart="85.20" from="25491351#0" to="35829592#3"/>
    <trip id="72" depart="86.40" from="279297825#0" to="23058448"/>
    <trip id="73" depart="87.60" from="34080354" to="30969502#1"/>
    <trip id="76" depart="91.20" from="279297825#0" to="29999825#4"/>
    <trip id="78" depart="93.60" from="279297825#0" to="29999825#4"/>
    <trip id="79" depart="94.80" from="25491351#0" to="23058448"/>
    <trip id="83" depart="99.60" from="25491351#0" to="30969502#1"/>
    <trip id="85" depart="102.00" from="68546140" to="29999825#4"/>
    <trip id="86" depart="103.20" from="34080354" to="35829592#3"/>
    <trip id="87" depart="104.40" from="68546136#0" to="23058448"/>
    <trip id="89" depart="106.80" from="279297825#0" to="278015286"/>
    <trip id="90" depart="108.00" from="540392791#0" to="30969502#1"/>
    <trip id="92" depart="110.40" from="279297825#0" to="25491237#4"/>
    <trip id="93" depart="111.60" from="68546136#0" to="23058448"/>
    <trip id="95" depart="114.00" from="279297825#0" to="25491237#4"/>
    <trip id="97" depart="116.40" from="279297825#0" to="35829592#3"/>
    <trip id="101" depart="121.20" from="68546136#0" to="23058448"/>
    <trip id="102" depart="122.40" from="34080354" to="23058448"/>
    <trip id="105" depart="126.00" from="25491351#0" to="35829592#3"/>
    <trip id="106" depart="127.20" from="34080354" to="278015286"/>
    <trip id="108" depart="129.60" from="35829777#0" to="30969502#1"/>
    <trip id="110" depart="132.00" from="68546140" to="29999825#4"/>
    <trip id="111" depart="133.20" from="34080354" to="30969502#1"/>
    <trip id="113" depart="135.60" from="34080354" to="35829592#3"/>
    <trip id="114" depart="136.80" from="-35829816" to="35829816"/>
    <trip id="116" depart="139.20" from="35829777#0" to="30969502#1"/>
    <trip id="119" depart="142.80" from="35829777#0" to="29999825#4"/>
    <trip id="120" depart="144.00" from="279297825#0" to="29999825#4"/>
    <trip id="123" depart="147.60" from="25491351#0" to="278015286"/>
    <trip id="124" depart="148.80" from="540392791#0" to="25491237#4"/>
    <trip id="125" depart="150.00" from="25491351#0" to="35829592#3"/>
    <trip id="131" depart="157.20" from="279297825#0" to="23058448"/>
    <trip id="132" depart="158.40" from="68546136#0" to="30969502#1"/>
    <trip id="135" depart="162.00" from="68546136#0" to="25491237#4"/>
    <trip id="137" depart="164.40" from="-35829816" to="23058439"/>
    <trip id="139" depart="166.80" from="25491351#0" to="29999825#4"/>
    <trip id="140" depart="168.00" from="540392791#0" to="23058448"/>
    <trip id="141" depart="169.20" from="35829777#0" to="25491237#4"/>
    <trip id="144" depart="172.80" from="279297825#0" to="25491237#4"/>
    <trip id="146" depart="175.20" from="35829777#0" to="25491237#4"/>
    <trip id="147" depart="176.40" from="540392791#0" to="29999825#4"/>
    <trip id="149" depart="178.80" from="-23058439" to="35829816"/>
    <trip id="150" depart="180.00" from="68546140" to="29999825#4"/>
    <trip id="151" depart="181.20" from="68546136#0" to="29999825#4"/>
    <trip id="154" depart="184.80" from="68546136#0" to="35829592#3"/>
    <trip id="158" depart="189.60" from="279297825#0" to="29999825#4"/>
    <trip id="159" depart="190.80" from="-35829816" to="35829816"/>
    <trip id="164" depart="196.80" from="68546136#0" to="35829592#3"/>
    <trip id="165" depart="198.00" from="68546136#0" to="25491237#4"/>
    <trip id="167" depart="200.40" from="68546136#0" to="35829592#3"/>
    <trip id="168" depart="201.60" from="25491351#0" to="35829592#3"/>
    <trip id="169" depart="202.80" from="34080354" to="25491237#4"/>
    <trip id="170" depart="204.00" from="68546136#0" to="23058448"/>
    <trip id="172" depart="206.40" from="25491351#0" to="35829592#3"/>
    <trip id="174" depart="208.80" from="35829777#0" to="278015286"/>
    <trip id="175" depart="210.00" from="68546140" to="29999825#4"/>
    <trip id="180" depart="216.00" from="540392791#0" to="25491237#4"/>
    <trip id="181" depart="217.20" from="35829777#0" to="29999825#4"/>
    <trip id="182" depart="218.40" from="279297825#0" to="29999825#4"/>
    <trip id="183" depart="219.60" from="25491351#0" to="30969502#1"/>
    <trip id="184" depart="220.80" from="-23058439" to="35829816"/>
    <trip id="185" depart="222.00" from="34080354" to="30969502#1"/>
    <trip id="186" depart="223.20" from="540392791#0" to="30969502#1"/>
    <trip id="188" depart="225.60" from="35829777#0" to="25491237#4"/>
    <trip id="189" depart="226.80" from="25491351#0" to="35829592#3"/>
    <trip id="190" depart="228.00" from="540392791#0" to="25491237#4"/>
    <trip id="191" depart="229.20" from="25491351#0" to="278015286"/>
    <trip id="192" depart="230.40" from="279297825#0" to="25491237#4"/>
    <trip id="195" depart="234.00" from="68546140" to="29999825#4"/>
    <trip id="196" depart="235.20" from="25491351#0" to="29999825#4"/>
    <trip id="198" depart="237.60" from="279297825#0" to="29999825#4"/>
    <trip id="199" depart="238.80" from="35829777#0" to="278015286"/>
    <trip id="200" depart="240.00" from="279297825#0" to="23058448"/>
    <trip id="202" depart="242.40" from="68546136#0" to="23058448"/>
    <trip id="204" depart="244.80" from="35829777#0" to="25491237#4"/>
    <trip id="205" depart="246.00" from="68546136#0" to="35829592#3"/>
    <trip id="206" depart="247.20" from="540392791#0" to="23058448"/>
    <trip id="207" depart="248.40" from="-35829816" to="23058439"/>
    <trip id="208" depart="249.60" from="25491351#0" to="278015286"/>
    <trip id="210" depart="252.00" from="279297825#0" to="30969502#1"/>
    <trip id="212" depart="254.40" from="34080354" to="23058448"/>
    <trip id="214" depart="256.80" from="540392791#0" to="35829592#3"/>
    <trip id="216" depart="259.20" from="-35829816" to="35829816"/>
    <trip id="218" depart="261.60" from="25491351#0" to="35829592#3"/>
    <trip id="219" depart="262.80" from="34080354" to="35829592#3"/>
    <trip id="222" depart="266.40" from="68546140" to="29999825#4"/>
    <trip id="223" depart="267.60" from="540392791#0" to="29999825#4"/>
    <trip id="224" depart="268.80" from="68546136#0" to="29999825#4"/>
    <trip id="226" depart="271.20" from="34080354" to="25491237#4"/>
    <trip id="227" depart="272.40" from="25491351#0" to="30969502#1"/>
    <trip id="228" depart="273.60" from="540392791#0" to="29999825#4"/>
    <trip id="229" depart="274.80" from="35829777#0" to="25491237#4"/>
    <trip id="231" depart="277.20" from="25491351#0" to="25491237#4"/>
    <trip id="232" depart="278.40" from="34080354" to="23058448"/>
    <trip id="233" depart="279.60" from="25491351#0" to="30969502#1"/>
    <trip id="235" depart="282.00" from="279297825#0" to="29999825#4"/>
    <trip id="236" depart="283.20" from="279297825#0" to="23058448"/>
    <trip id="238" depart="285.60" from="35829777#0" to="30969502#1"/>
    <trip id="239" depart="286.80" from="68546136#0" to="35829592#3"/>
    <trip id="241" depart="289.20" from="279297825#0" to="35829592#3"/>
    <trip id="243" depart="291.60" from="279297825#0" to="30969502#1"/>
    <trip id="244" depart="292.80" from="34080354" to="29999825#4"/>
    <trip id="247" depart="296.40" from="279297825#0" to="30969502#1"/>
    <trip id="248" depart="297.60" from="279297825#0" to="23058448"/>
    <trip id="249" depart="298.80" from="34080354" to="23058448"/>
    <trip id="251" depart="301.20" from="279297825#0" to="29999825#4"/>
    <trip id="256" depart="307.20" from="540392791#0" to="278015286"/>
    <trip id="257" depart="308.40" from="540392791#0" to="35829592#3"/>
    <trip id="261" depart="313.20" from="35829777#0" to="35829592#3"/>
    <trip id="262" depart="314.40" from="35829777#0" to="35829592#3"/>
    <trip id="266" depart="319.20" from="35829777#0" to="23058448"/>
    <trip id="267" depart="320.40" from="540392791#0" to="35829592#3"/>
    <trip id="271" depart="325.20" from="-23058439" to="23058439"/>
    <trip id="272" depart="326.40" from="25491351#0" to="30969502#1"/>
    <trip id="275" depart="330.00" from="540392791#0" to="30969502#1"/>
    <trip id="277" depart="332.40" from="68546136#0" to="29999825#4"/>
    <trip id="278" depart="333.60" from="-35829816" to="35829816"/>
    <trip id="279" depart="334.80" from="68546136#0" to="25491237#4"/>
    <trip id="280" depart="336.00" from="279297825#0" to="25491237#4"/>
    <trip id="281" depart="337.20" from="34080354" to="25491237#4"/>
    <trip id="282" depart="338.40" from="68546136#0" to="35829592#3"/>
    <trip id="283" depart="339.60" from="-23058439" to="35829816"/>
    <trip id="284" depart="340.80" from="35829777#0" to="35829592#3"/>
    <trip id="285" depart="342.00" from="540392791#0" to="278015286"/>
    <trip id="287" depart="344.40" from="25491351#0" to="35829592#3"/>
    <trip id="288" depart="345.60" from="34080354" to="278015286"/>
    <trip id="289" depart="346.80" from="279297825#0" to="30969502#1"/>
    <trip id="290" depart="348.00" from="25491351#0" to="35829592#3"/>
    <trip id="292" depart="350.40" from="68546136#0" to="23058448"/>
    <trip id="293" depart="351.60" from="34080354" to="29999825#4"/>
    <trip id="295" depart="354.00" from="68546136#0" to="23058448"/>
    <trip id="298" depart="357.60" from="540392791#0" to="25491237#4"/>
    <trip id="299" depart="358.80" from="-23058439" to="35829816"/>
    <trip id="301" depart="361.20" from="34080354" to="35829592#3"/>
    <trip id="302" depart="362.40" from="540392791#0" to="30969502#1"/>
    <trip id="303" depart="363.60" from="34080354" to="35829592#3"/>
    <trip id="305" depart="366.00" from="540392791#0" to="25491237#4"/>
    <trip id="306" depart="367.20" from="35829777#0" to="278015286"/>
    <trip id="307" depart="368.40" from="34080354" to="278015286"/>
    <trip id="308" depart="369.60" from="540392791#0" to="25491237#4"/>
    <trip id="309" depart="370.80" from="540392791#0" to="25491237#4"/>
    <trip id="311" depart="373.20" from="-35829816" to="23058439"/>
    <trip id="312" depart="374.40" from="34080354" to="35829592#3"/>
    <trip id="314" depart="376.80" from="34080354" to="30969502#1"/>
    <trip id="315" depart="378.00" from="68546140" to="29999825#4"/>
    <trip id="318" depart="381.60" from="-35829816" to="23058439"/>
    <trip id="319" depart="382.80" from="34080354" to="25491237#4"/>
    <trip id="320" depart="384.00" from="68546140" to="29999825#4"/>
    <trip id="321" depart="385.20" from="540392791#0" to="23058448"/>
    <trip id="322" depart="386.40" from="68546136#0" to="278015286"/>
    <trip id="323" depart="387.60" from="68546136#0" to="29999825#4"/>
    <trip id="324" depart="388.80" from="34080354" to="278015286"/>
    <trip id="325" depart="390.00" from="-35829816" to="23058439"/>
    <trip id="327" depart="392.40" from="68546136#0" to="278015286"/>
    <trip id="330" depart="396.00" from="35829777#0" to="25491237#4"/>
    <trip id="332" depart="398.40" from="540392791#0" to="29999825#4"/>
    <trip id="333" depart="399.60" from="68546136#0" to="23058448"/>
    <trip id="334" depart="400.80" from="34080354" to="278015286"/>
    <trip id="335" depart="402.00" from="279297825#0" to="35829592#3"/>
    <trip id="337" depart="404.40" from="35829777#0" to="29999825#4"/>
    <trip id="340" depart="408.00" from="35829777#0" to="23058448"/>
    <trip id="341" depart="409.20" from="-35829816" to="23058439"/>
    <trip id="343" depart="411.60" from="35829777#0" to="25491237#4"/>
    <trip id="344" depart="412.80" from="25491351#0" to="30969502#1"/>
    <trip id="345" depart="414.00" from="540392791#0" to="278015286"/>
    <trip id="347" depart="416.40" from="68546136#0" to="30969502#1"/>
    <trip id="349" depart="418.80" from="279297825#0" to="29999825#4"/>
    <trip id="353" depart="423.60" from="540392791#0" to="29999825#4"/>
    <trip id="355" depart="426.00" from="540392791#0" to="30969502#1"/>
    <trip id="356" depart="427.20" from="68546140" to="29999825#4"/>
    <trip id="359" depart="430.80" from="25491351#0" to="25491237#4"/>
    <trip id="360" depart="432.00" from="-23058439" to="35829816"/>
    <trip id="361" depart="433.20" from="68546136#0" to="29999825#4"/>
    <trip id="363" depart="435.60" from="540392791#0" to="25491237#4"/>
    <trip id="365" depart="438.00" from="34080354" to="30969502#1"/>
    <trip id="367" depart="440.40" from="35829777#0" to="30969502#1"/>
    <trip id="369" depart="442.80" from="279297825#0" to="25491237#4"/>
    <trip id="370" depart="444.00" from="540392791#0" to="35829592#3"/>
    <trip id="371" depart="445.20" from="25491351#0" to="30969502#1"/>
    <trip id="373" depart="447.60" from="68546136#0" to="29999825#4"/>
    <trip id="374" depart="448.80" from="34080354" to="25491237#4"/>
    <trip id="376" depart="451.20" from="279297825#0" to="29999825#4"/>
    <trip id="378" depart="453.60" from="34080354" to="278015286"/>
    <trip id="380" depart="456.00" from="540392791#0" to="30969502#1"/>
    <trip id="381" depart="457.20" from="540392791#0" to="23058448"/>
    <trip id="383" depart="459.60" from="279297825#0" to="30969502#1"/>
    <trip id="384" depart="460.80" from="-35829816" to="35829816"/>
    <trip id="385" depart="462.00" from="35829777#0" to="23058448"/>
    <trip id="390" depart="468.00" from="68546136#0" to="278015286"/>
    <trip id="391" depart="469.20" from="540392791#0" to="29999825#4"/>
    <trip id="392" depart="470.40" from="25491351#0" to="35829592#3"/>
    <trip id="394" depart="472.80" from="34080354" to="278015286"/>
    <trip id="395" depart="474.00" from="68546140" to="29999825#4"/>
    <trip id="396" depart="475.20" from="68546136#0" to="35829592#3"/>
    <trip id="397" depart="476.40" from="25491351#0" to="35829592#3"/>
    <trip id="399" depart="478.80" from="34080354" to="35829592#3"/>
    <trip id="400" depart="480.00" from="25491351#0" to="25491237#4"/>
    <trip id="402" depart="482.40" from="34080354" to="23058448"/>
    <trip id="403" depart="483.60" from="34080354" to="25491237#4"/>
    <trip id="404" depart="484.80" from="34080354" to="29999825#4"/>
    <trip id="405" depart="486.00" from="34080354" to="25491237#4"/>
    <trip id="407" depart="488.40" from="35829777#0" to="23058448"/>
    <trip id="409" depart="490.80" from="540392791#0" to="30969502#1"/>
    <trip id="410" depart="492.00" from="68546136#0" to="278015286"/>
    <trip id="411" depart="493.20" from="35829777#0" to="35829592#3"/>
    <trip id="414" depart="496.80" from="35829777#0" to="35829592#3"/>
    <trip id="415" depart="498.00" from="68546136#0" to="278015286"/>
    <trip id="416" depart="499.20" from="34080354" to="278015286"/>
    <trip id="417" depart="500.40" from="540392791#0" to="278015286"/>
    <trip id="418" depart="501.60" from="35829777#0" to="23058448"/>
    <trip id="420" depart="504.00" from="279297825#0" to="30969502#1"/>
    <trip id="421" depart="505.20" from="35829777#0" to="35829592#3"/>
    <trip id="422" depart="506.40" from="68546136#0" to="35829592#3"/>
    <trip id="423" depart="507.60" from="279297825#0" to="25491237#4"/>
    <trip id="424" depart="508.80" from="540392791#0" to="35829592#3"/>
    <trip id="428" depart="513.60" from="540392791#0" to="278015286"/>
    <trip id="430" depart="516.00" from="68546136#0" to="278015286"/>
    <trip id="433" depart="519.60" from="25491351#0" to="25491237#4"/>
    <trip id="435" depart="522.00" from="35829777#0" to="35829592#3"/>
    <trip id="436" depart="523.20" from="-35829816" to="23058439"/>
    <trip id="437" depart="524.40" from="68546136#0" to="29999825#4"/>
    <trip id="440" depart="528.00" from="25491351#0" to="25491237#4"/>
    <trip id="444" depart="532.80" from="279297825#0" to="29999825#4"/>
    <trip id="445" depart="534.00" from="35829777#0" to="278015286"/>
    <trip id="446" depart="535.20" from="25491351#0" to="35829592#3"/>
    <trip id="448" depart="537.60" from="34080354" to="23058448"/>
    <trip id="449" depart="538.80" from="35829777#0" to="29999825#4"/>
    <trip id="452" depart="542.40" from="25491351#0" to="29999825#4"/>
    <trip id="453" depart="543.60" from="540392791#0" to="30969502#1"/>
    <trip id="456" depart="547.20" from="25491351#0" to="35829592#3"/>
    <trip id="457" depart="548.40" from="35829777#0" to="25491237#4"/>
    <trip id="458" depart="549.60" from="35829777#0" to="29999825#4"/>
    <trip id="459" depart="550.80" from="540392791#0" to="30969502#1"/>
    <trip id="460" depart="552.00" from="35829777#0" to="35829592#3"/>
    <trip id="462" depart="554.40" from="35829777#0" to="25491237#4"/>
    <trip id="463" depart="555.60" from="279297825#0" to="29999825#4"/>
    <trip id="465" depart="558.00" from="25491351#0" to="30969502#1"/>
    <trip id="469" depart="562.80" from="68546136#0" to="25491237#4"/>
    <trip id="470" depart="564.00" from="68546136#0" to="278015286"/>
    <trip id="471" depart="565.20" from="68546136#0" to="30969502#1"/>
    <trip id="477" depart="572.40" from="279297825#0" to="35829592#3"/>
    <trip id="479" depart="574.80" from="34080354" to="30969502#1"/>
    <trip id="480" depart="576.00" from="540392791#0" to="29999825#4"/>
    <trip id="483" depart="579.60" from="-23058439" to="35829816"/>
    <trip id="485" depart="582.00" from="-35829816" to="23058439"/>
    <trip id="487" depart="584.40" from="25491351#0" to="278015286"/>
    <trip id="488" depart="585.60" from="-35829816" to="35829816"/>
    <trip id="489" depart="586.80" from="25491351#0" to="278015286"/>
    <trip id="490" depart="588.00" from="-23058439" to="35829816"/>
    <trip id="492" depart="590.40" from="540392791#0" to="30969502#1"/>
    <trip id="494" depart="592.80" from="540392791#0" to="23058448"/>
    <trip id="496" depart="595.20" from="34080354" to="278015286"/>
    <trip id="498" depart="597.60" from="279297825#0" to="278015286"/>
    <trip id="502" depart="602.40" from="279297825#0" to="278015286"/>
    <trip id="503" depart="603.60" from="-35829816" to="23058439"/>
    <trip id="504" depart="604.80" from="68546136#0" to="278015286"/>
    <trip id="505" depart="606.00" from="35829777#0" to="30969502#1"/>
    <trip id="507" depart="608.40" from="68546136#0" to="23058448"/>
    <trip id="511" depart="613.20" from="68546136#0" to="25491237#4"/>
    <trip id="512" depart="614.40" from="-35829816" to="35829816"/>
    <trip id="515" depart="618.00" from="25491351#0" to="23058448"/>
    <trip id="518" depart="621.60" from="25491351#0" to="25491237#4"/>
    <trip id="519" depart="622.80" from="-35829816" to="23058439"/>
    <trip id="520" depart="624.00" from="540392791#0" to="29999825#4"/>
    <trip id="521" depart="625.20" from="540392791#0" to="278015286"/>
    <trip id="522" depart="626.40" from="68546136#0" to="29999825#4"/>
    <trip id="525" depart="630.00" from="68546136#0" to="35829592#3"/>
    <trip id="526" depart="631.20" from="34080354" to="278015286"/>
    <trip id="528" depart="633.60" from="34080354" to="278015286"/>
    <trip id="529" depart="634.80" from="540392791#0" to="278015286"/>
    <trip id="533" depart="639.60" from="35829777#0" to="29999825#4"/>
    <trip id="535" depart="642.00" from="34080354" to="278015286"/>
    <trip id="537" depart="644.40" from="540392791#0" to="35829592#3"/>
    <trip id="538" depart="645.60" from="35829777#0" to="35829592#3"/>
    <trip id="539" depart="646.80" from="540392791#0" to="23058448"/>
    <trip id="540" depart="648.00" from="34080354" to="23058448"/>
    <trip id="541" depart="649.20" from="279297825#0" to="278015286"/>
    <trip id="543" depart="651.60" from="279297825#0" to="30969502#1"/>
    <trip id="544" depart="652.80" from="279297825#0" to="23058448"/>
    <trip id="548" depart="657.60" from="68546136#0" to="29999825#4"/>
    <trip id="549" depart="658.80" from="35829777#0" to="29999825#4"/>
    <trip id="551" depart="661.20" from="279297825#0" to="30969502#1"/>
    <trip id="552" depart="662.40" from="540392791#0" to="35829592#3"/>
    <trip id="554" depart="664.80" from="35829777#0" to="25491237#4"/>
    <trip id="555" depart="666.00" from="35829777#0" to="23058448"/>
    <trip id="556" depart="667.20" from="35829777#0" to="23058448"/>
    <trip id="558" depart="669.60" from="279297825#0" to="35829592#3"/>
    <trip id="559" depart="670.80" from="35829777#0" to="35829592#3"/>
    <trip id="561" depart="673.20" from="68546136#0" to="29999825#4"/>
    <trip id="564" depart="676.80" from="25491351#0" to="23058448"/>
    <trip id="565" depart="678.00" from="540392791#0" to="25491237#4"/>
    <trip id="567" depart="680.40" from="68546136#0" to="29999825#4"/>
    <trip id="568" depart="681.60" from="279297825#0" to="23058448"/>
    <trip id="570" depart="684.00" from="540392791#0" to="23058448"/>
    <trip id="571" depart="685.20" from="279297825#0" to="25491237#4"/>
    <trip id="572" depart="686.40" from="279297825#0" to="30969502#1"/>
    <trip id="573" depart="687.60" from="540392791#0" to="29999825#4"/>
    <trip id="574" depart="688.80" from="-23058439" to="23058439"/>
    <trip id="576" depart="691.20" from="540392791#0" to="25491237#4"/>
    <trip id="577" depart="692.40" from="35829777#0" to="278015286"/>
    <trip id="578" depart="693.60" from="279297825#0" to="25491237#4"/>
    <trip id="580" depart="696.00" from="279297825#0" to="25491237#4"/>
    <trip id="581" depart="697.20" from="540392791#0" to="278015286"/>
    <trip id="583" depart="699.60" from="279297825#0" to="29999825#4"/>
    <trip id="586" depart="703.20" from="25491351#0" to="25491237#4"/>
    <trip id="589" depart="706.80" from="540392791#0" to="29999825#4"/>
    <trip id="590" depart="708.00" from="68546136#0" to="35829592#3"/>
    <trip id="592" depart="710.40" from="-23058439" to="23058439"/>
    <trip id="594" depart="712.80" from="35829777#0" to="29999825#4"/>
    <trip id="595" depart="714.00" from="540392791#0" to="278015286"/>
    <trip id="596" depart="715.20" from="-35829816" to="23058439"/>
    <trip id="597" depart="716.40" from="25491351#0" to="35829592#3"/>
    <trip id="598" depart="717.60" from="35829777#0" to="35829592#3"/>
    <trip id="600" depart="720.00" from="68546136#0" to="23058448"/>
    <trip id="601" depart="721.20" from="35829777#0" to="29999825#4"/>
    <trip id="602" depart="722.40" from="279297825#0" to="25491237#4"/>
    <trip id="603" depart="723.60" from="279297825#0" to="25491237#4"/>
    <trip id="607" depart="728.40" from="540392791#0" to="35829592#3"/>
    <trip id="608" depart="729.60" from="68546136#0" to="23058448"/>
    <trip id="610" depart="732.00" from="35829777#0" to="35829592#3"/>
    <trip id="611" depart="733.20" from="35829777#0" to="23058448"/>
    <trip id="612" depart="734.40" from="540392791#0" to="278015286"/>
    <trip id="613" depart="735.60" from="540392791#0" to="35829592#3"/>
    <trip id="615" depart="738.00" from="35829777#0" to="30969502#1"/>
    <trip id="616" depart="739.20" from="35829777#0" to="35829592#3"/>
    <trip id="617" depart="740.40" from="35829777#0" to="23058448"/>
    <trip id="619" depart="742.80" from="25491351#0" to="25491237#4"/>
    <trip id="621" depart="745.20" from="25491351#0" to="278015286"/>
    <trip id="624" depart="748.80" from="68546136#0" to="29999825#4"/>
    <trip id="625" depart="750.00" from="34080354" to="278015286"/>
    <trip id="626" depart="751.20" from="34080354" to="35829592#3"/>
    <trip id="628" depart="753.60" from="68546136#0" to="30969502#1"/>
    <trip id="629" depart="754.80" from="25491351#0" to="278015286"/>
    <trip id="630" depart="756.00" from="-35829816" to="23058439"/>
    <trip id="631" depart="757.20" from="-23058439" to="35829816"/>
    <trip id="632" depart="758.40" from="279297825#0" to="30969502#1"/>
    <trip id="633" depart="759.60" from="34080354" to="23058448"/>
    <trip id="634" depart="760.80" from="25491351#0" to="278015286"/>
    <trip id="635" depart="762.00" from="279297825#0" to="29999825#4"/>
    <trip id="637" depart="764.40" from="25491351#0" to="278015286"/>
    <trip id="638" depart="765.60" from="279297825#0" to="29999825#4"/>
    <trip id="639" depart="766.80" from="68546136#0" to="30969502#1"/>
    <trip id="640" depart="768.00" from="-23058439" to="23058439"/>
    <trip id="641" depart="769.20" from="540392791#0" to="25491237#4"/>
    <trip id="642" depart="770.40" from="540392791#0" to="30969502#1"/>
    <trip id="644" depart="772.80" from="279297825#0" to="29999825#4"/>
    <trip id="647" depart="776.40" from="279297825#0" to="29999825#4"/>
    <trip id="649" depart="778.80" from="279297825#0" to="35829592#3"/>
    <trip id="650" depart="780.00" from="68546136#0" to="30969502#1"/>
    <trip id="651" depart="781.20" from="68546136#0" to="30969502#1"/>
    <trip id="652" depart="782.40" from="540392791#0" to="29999825#4"/>
    <trip id="653" depart="783.60" from="35829777#0" to="278015286"/>
    <trip id="654" depart="784.80" from="279297825#0" to="25491237#4"/>
    <trip id="657" depart="788.40" from="25491351#0" to="23058448"/>
    <trip id="662" depart="794.40" from="540392791#0" to="23058448"/>
    <trip id="663" depart="795.60" from="279297825#0" to="23058448"/>
    <trip id="664" depart="796.80" from="68546136#0" to="35829592#3"/>
    <trip id="665" depart="798.00" from="68546136#0" to="23058448"/>
    <trip id="666" depart="799.20" from="279297825#0" to="278015286"/>
    <trip id="667" depart="800.40" from="540392791#0" to="23058448"/>
    <trip id="668" depart="801.60" from="279297825#0" to="25491237#4"/>
    <trip id="669" depart="802.80" from="540392791#0" to="278015286"/>
    <trip id="670" depart="804.00" from="34080354" to="25491237#4"/>
    <trip id="671" depart="805.20" from="68546136#0" to="278015286"/>
    <trip id="672" depart="806.40" from="68546136#0" to="25491237#4"/>
    <trip id="674" depart="808.80" from="34080354" to="25491237#4"/>