<?xml version="1.0" encoding="UTF-8"?>

<!-- generated on 2024-09-03 01:37:40 by Eclipse SUMO duarouter Version 1.20.0
<configuration xmlns:xsi="http://www.w3.org/2001/XMLSchema-instance" xsi:noNamespaceSchemaLocation="http://sumo.dlr.de/xsd/duarouterConfiguration.xsd">

    <input>
        <net-file value="train_files/roundabout/middle/outputs/map(103)_dict/map(103)/map(103).net.xml"/>
        <route-files value="train_files/roundabout/middle/outputs/map(103)_dict/map(103)/map(103).trips.xml"/>
    </input>

    <output>
        <output-file value="train_files/roundabout/middle/outputs/map(103)_dict/map(103)/map(103).rou.xml"/>
    </output>

    <report>
        <ignore-errors value="true"/>
    </report>

</configuration>
-->

<routes xmlns:xsi="http://www.w3.org/2001/XMLSchema-instance" xsi:noNamespaceSchemaLocation="http://sumo.dlr.de/xsd/routes_file.xsd">
    <vehicle id="1" depart="1.20">
        <route edges="25491351#0 25491351#1 25491351#2 540384185 970658199 970658201#0 970658201#1 970658200 970658207 23058445#0 23058445#1 23058445#2 23058445#3 23058448"/>
    </vehicle>
    <vehicle id="2" depart="2.40">
        <route edges="540392791#0 540392791#1 540392791#2 540392791#3 970658201#0 970658201#1 970658200 970658207 970658206 970658205 970658204 970658203 970658202 540384185 29999825#0 29999825#1 29999825#2 30969502#0 30969502#1"/>
    </vehicle>
    <vehicle id="7" depart="8.40">
        <route edges="35829777#0 35829777#1 35829777#2 970658200 970658207 970658206 970658205 970658204 970658203 970658202 540384185 29999825#0 29999825#1 29999825#2 29999825#3 29999825#4"/>
    </vehicle>
    <vehicle id="10" depart="12.00">
        <route edges="68546136#0 68546136#1 68546136#2 68546136#3 970658207 970658206 970658205 970658204 970658203 970658202 540384185 29999825#0 29999825#1 29999825#2 30969502#0 30969502#1"/>
    </vehicle>
    <vehicle id="11" depart="13.20">
        <route edges="279297825#0 279297825#1 279297825#2 279297825#3 970658203 970658202 540384185 970658199 970658201#0 970658201#1 970658200 970658207 23058445#0 23058445#1 23058445#2 23058445#3 23058448"/>
    </vehicle>
    <vehicle id="13" depart="15.60">
        <route edges="-23058439 -657820316 -657820313 -23058440 35829816 -35829816 23058440 657820313 657820316 23058439"/>
    </vehicle>
    <vehicle id="14" depart="16.80">
        <route edges="68546136#0 68546136#1 68546136#2 68546136#3 970658207 970658206 970658205 970658204 970658203 970658202 540384185 29999825#0 29999825#1 29999825#2 29999825#3 29999825#4"/>
    </vehicle>
    <vehicle id="15" depart="18.00">
        <route edges="68546136#0 68546136#1 68546136#2 68546136#3 970658207 970658206 970658205 970658204 970658203 970658202 540384185 29999825#0 29999825#1 29999825#2 30969502#0 30969502#1"/>
    </vehicle>
    <vehicle id="17" depart="20.40">
        <route edges="279297825#0 279297825#1 279297825#2 279297825#3 970658203 970658202 540384185 29999825#0 29999825#1 29999825#2 29999825#3 29999825#4"/>
    </vehicle>
    <vehicle id="18" depart="21.60">
        <route edges="68546136#0 68546136#1 68546136#2 68546136#3 970658207 970658206 970658205 970658204 970658203 970658202 540384185 29999825#0 29999825#1 29999825#2 29999825#3 29999825#4"/>
    </vehicle>
    <vehicle id="19" depart="22.80">
        <route edges="68546136#0 68546136#1 68546136#2 68546136#3 970658207 970658206 970658205 970658204 970658203 970658202 540384185 29999825#0 29999825#1 29999825#2 29999825#3 29999825#4"/>
    </vehicle>
    <vehicle id="21" depart="25.20">
        <route edges="25491351#0 25491351#1 25491351#2 540384185 970658199 970658201#0 970658201#1 970658200 970658207 970658206 970658205 970658204 970658203 25491237#0 25491237#1 25491237#2 25491237#3 25491237#4"/>
    </vehicle>
    <vehicle id="24" depart="28.80">
        <route edges="35829777#0 35829777#1 35829777#2 970658200 970658207 970658206 970658205 970658204 970658203 25491237#0 25491237#1 25491237#2 25491237#3 25491237#4"/>
    </vehicle>
    <vehicle id="25" depart="30.00">
        <route edges="279297825#0 279297825#1 279297825#2 279297825#3 970658203 970658202 540384185 970658199 970658201#0 970658201#1 970658200 970658207 23058445#0 23058445#1 23058445#2 23058445#3 23058448"/>
    </vehicle>
    <vehicle id="27" depart="32.40">
        <route edges="35829777#0 35829777#1 35829777#2 970658200 970658207 970658206 970658205 970658204 970658203 970658202 540384185 29999825#0 29999825#1 29999825#2 29999825#3 29999825#4"/>
    </vehicle>
    <vehicle id="31" depart="37.20">
        <route edges="35829777#0 35829777#1 35829777#2 970658200 970658207 970658206 970658205 970658204 970658203 970658202 540384185 29999825#0 29999825#1 29999825#2 30969502#0 30969502#1"/>
    </vehicle>
    <vehicle id="32" depart="38.40">
        <route edges="68546136#0 68546136#1 68546136#2 68546136#3 970658207 970658206 970658205 970658204 970658203 970658202 540384185 970658199 970658201#0 35829592#0 35829592#1 35829592#2 35829592#3"/>
    </vehicle>
    <vehicle id="34" depart="40.80">
        <route edges="25491351#0 25491351#1 25491351#2 540384185 970658199 970658201#0 970658201#1 970658200 970658207 970658206 970658205 970658204 970658203 25491237#0 25491237#1 25491237#2 25491237#3 25491237#4"/>
    </vehicle>
    <vehicle id="35" depart="42.00">
        <route edges="-35829816 23058440 657820313 657820316 23058439 -23058439 -657820316 -657820313 -23058440 35829816"/>
    </vehicle>
    <vehicle id="36" depart="43.20">
        <route edges="68546136#0 68546136#1 68546136#2 68546136#3 970658207 970658206 970658205 970658204 970658203 25491237#0 25491237#1 25491237#2 25491237#3 25491237#4"/>
    </vehicle>
    <vehicle id="37" depart="44.40">
        <route edges="35829777#0 35829777#1 35829777#2 970658200 970658207 970658206 970658205 35830198#0 35830198#1 35830198#2 278015286"/>
    </vehicle>
    <vehicle id="39" depart="46.80">
        <route edges="25491351#0 25491351#1 25491351#2 540384185 970658199 970658201#0 970658201#1 970658200 970658207 23058445#0 23058445#1 23058445#2 23058445#3 23058448"/>
    </vehicle>
    <vehicle id="40" depart="48.00">
        <route edges="35829777#0 35829777#1 35829777#2 970658200 970658207 970658206 970658205 970658204 970658203 25491237#0 25491237#1 25491237#2 25491237#3 25491237#4"/>
    </vehicle>
    <vehicle id="42" depart="50.40">
        <route edges="279297825#0 279297825#1 279297825#2 279297825#3 970658203 970658202 540384185 970658199 970658201#0 970658201#1 970658200 970658207 23058445#0 23058445#1 23058445#2 23058445#3 23058448"/>
    </vehicle>
    <vehicle id="43" depart="51.60">
        <route edges="68546140 29999825#4"/>
    </vehicle>
    <vehicle id="44" depart="52.80">
        <route edges="-23058439 -657820316 -657820313 -23058440 35829816 -35829816 23058440 657820313 657820316 23058439"/>
    </vehicle>
    <vehicle id="46" depart="55.20">
        <route edges="68546136#0 68546136#1 68546136#2 68546136#3 970658207 970658206 970658205 35830198#0 35830198#1 35830198#2 278015286"/>
    </vehicle>
    <vehicle id="48" depart="57.60">
        <route edges="68546140 29999825#4"/>
    </vehicle>
    <vehicle id="51" depart="61.20">
        <route edges="540392791#0 540392791#1 540392791#2 540392791#3 970658201#0 970658201#1 970658200 970658207 970658206 970658205 970658204 970658203 970658202 540384185 29999825#0 29999825#1 29999825#2 29999825#3 29999825#4"/>
    </vehicle>
    <vehicle id="52" depart="62.40">
        <route edges="25491351#0 25491351#1 25491351#2 540384185 29999825#0 29999825#1 29999825#2 30969502#0 30969502#1"/>
    </vehicle>
    <vehicle id="55" depart="66.00">
        <route edges="68546136#0 68546136#1 68546136#2 68546136#3 970658207 970658206 970658205 970658204 970658203 25491237#0 25491237#1 25491237#2 25491237#3 25491237#4"/>
    </vehicle>
    <vehicle id="56" depart="67.20">
        <route edges="34080354 23058446 278015285#0 278015285#1 278015285#2 970658205 970658204 970658203 970658202 540384185 970658199 970658201#0 970658201#1 970658200 970658207 23058445#0 23058445#1 23058445#2 23058445#3 23058448"/>
    </vehicle>
    <vehicle id="58" depart="69.60">
        <route edges="25491351#0 25491351#1 25491351#2 540384185 29999825#0 29999825#1 29999825#2 30969502#0 30969502#1"/>
    </vehicle>
    <vehicle id="59" depart="70.80">
        <route edges="35829777#0 35829777#1 35829777#2 970658200 970658207 23058445#0 23058445#1 23058445#2 23058445#3 23058448"/>
    </vehicle>
    <vehicle id="60" depart="72.00">
        <route edges="540392791#0 540392791#1 540392791#2 540392791#3 970658201#0 970658201#1 970658200 970658207 970658206 970658205 970658204 970658203 970658202 540384185 29999825#0 29999825#1 29999825#2 29999825#3 29999825#4"/>
    </vehicle>
    <vehicle id="61" depart="73.20">
        <route edges="68546136#0 68546136#1 68546136#2 68546136#3 970658207 970658206 970658205 970658204 970658203 970658202 540384185 29999825#0 29999825#1 29999825#2 29999825#3 29999825#4"/>
    </vehicle>
    <vehicle id="63" depart="75.60">
        <route edges="-23058439 -657820316 -657820313 -23058440 35829816"/>
    </vehicle>
    <vehicle id="64" depart="76.80">
        <route edges="68546136#0 68546136#1 68546136#2 68546136#3 970658207 970658206 970658205 970658204 970658203 970658202 540384185 970658199 970658201#0 35829592#0 35829592#1 35829592#2 35829592#3"/>
    </vehicle>
    <vehicle id="69" depart="82.80">
        <route edges="540392791#0 540392791#1 540392791#2 540392791#3 970658201#0 970658201#1 970658200 970658207 23058445#0 23058445#1 23058445#2 23058445#3 23058448"/>
    </vehicle>
    <vehicle id="70" depart="84.00">
        <route edges="34080354 23058446 278015285#0 278015285#1 278015285#2 970658205 970658204 970658203 970658202 540384185 29999825#0 29999825#1 29999825#2 29999825#3 29999825#4"/>
    </vehicle>
    <vehicle id="71" depart="85.20">
        <route edges="25491351#0 25491351#1 25491351#2 540384185 970658199 970658201#0 35829592#0 35829592#1 35829592#2 35829592#3"/>
    </vehicle>
    <vehicle id="72" depart="86.40">
        <route edges="279297825#0 279297825#1 279297825#2 279297825#3 970658203 970658202 540384185 970658199 970658201#0 970658201#1 970658200 970658207 23058445#0 23058445#1 23058445#2 23058445#3 23058448"/>
    </vehicle>
    <vehicle id="73" depart="87.60">
        <route edges="34080354 23058446 278015285#0 278015285#1 278015285#2 970658205 970658204 970658203 970658202 540384185 29999825#0 29999825#1 29999825#2 30969502#0 30969502#1"/>
    </vehicle>
    <vehicle id="76" depart="91.20">
        <route edges="279297825#0 279297825#1 279297825#2 279297825#3 970658203 970658202 540384185 29999825#0 29999825#1 29999825#2 29999825#3 29999825#4"/>
    </vehicle>
    <vehicle id="78" depart="93.60">
        <route edges="279297825#0 279297825#1 279297825#2 279297825#3 970658203 970658202 540384185 29999825#0 29999825#1 29999825#2 29999825#3 29999825#4"/>
    </vehicle>
    <vehicle id="79" depart="94.80">
        <route edges="25491351#0 25491351#1 25491351#2 540384185 970658199 970658201#0 970658201#1 970658200 970658207 23058445#0 23058445#1 23058445#2 23058445#3 23058448"/>
    </vehicle>
    <vehicle id="83" depart="99.60">
        <route edges="25491351#0 25491351#1 25491351#2 540384185 29999825#0 29999825#1 29999825#2 30969502#0 30969502#1"/>
    </vehicle>
    <vehicle id="85" depart="102.00">
        <route edges="68546140 29999825#4"/>
    </vehicle>
    <vehicle id="86" depart="103.20">
        <route edges="34080354 23058446 278015285#0 278015285#1 278015285#2 970658205 970658204 970658203 970658202 540384185 970658199 970658201#0 35829592#0 35829592#1 35829592#2 35829592#3"/>
    </vehicle>
    <vehicle id="87" depart="104.40">
        <route edges="68546136#0 68546136#1 68546136#2 68546136#3 970658207 23058445#0 23058445#1 23058445#2 23058445#3 23058448"/>
    </vehicle>
    <vehicle id="89" depart="106.80">
        <route edges="279297825#0 279297825#1 279297825#2 279297825#3 970658203 970658202 540384185 970658199 970658201#0 970658201#1 970658200 970658207 970658206 970658205 35830198#0 35830198#1 35830198#2 278015286"/>
    </vehicle>
    <vehicle id="90" depart="108.00">
        <route edges="540392791#0 540392791#1 540392791#2 540392791#3 970658201#0 970658201#1 970658200 970658207 970658206 970658205 970658204 970658203 970658202 540384185 29999825#0 29999825#1 29999825#2 30969502#0 30969502#1"/>
    </vehicle>
    <vehicle id="92" depart="110.40">
        <route edges="279297825#0 279297825#1 279297825#2 279297825#3 970658203 25491237#0 25491237#1 25491237#2 25491237#3 25491237#4"/>
    </vehicle>
    <vehicle id="93" depart="111.60">
        <route edges="68546136#0 68546136#1 68546136#2 68546136#3 970658207 23058445#0 23058445#1 23058445#2 23058445#3 23058448"/>
    </vehicle>
    <vehicle id="95" depart="114.00">
        <route edges="279297825#0 279297825#1 279297825#2 279297825#3 970658203 25491237#0 25491237#1 25491237#2 25491237#3 25491237#4"/>
    </vehicle>
    <vehicle id="97" depart="116.40">
        <route edges="279297825#0 279297825#1 279297825#2 279297825#3 970658203 970658202 540384185 970658199 970658201#0 35829592#0 35829592#1 35829592#2 35829592#3"/>
    </vehicle>
    <vehicle id="101" depart="121.20">
        <route edges="68546136#0 68546136#1 68546136#2 68546136#3 970658207 23058445#0 23058445#1 23058445#2 23058445#3 23058448"/>
    </vehicle>
    <vehicle id="102" depart="122.40">
        <route edges="34080354 23058446 278015285#0 278015285#1 278015285#2 970658205 970658204 970658203 970658202 540384185 970658199 970658201#0 970658201#1 970658200 970658207 23058445#0 23058445#1 23058445#2 23058445#3 23058448"/>
    </vehicle>
    <vehicle id="105" depart="126.00">
        <route edges="25491351#0 25491351#1 25491351#2 540384185 970658199 970658201#0 35829592#0 35829592#1 35829592#2 35829592#3"/>
    </vehicle>
    <vehicle id="106" depart="127.20">
        <route edges="34080354 23058446 278015285#0 278015285#1 278015285#2 970658205 35830198#0 35830198#1 35830198#2 278015286"/>
    </vehicle>
    <vehicle id="108" depart="129.60">
        <route edges="35829777#0 35829777#1 35829777#2 970658200 970658207 970658206 970658205 970658204 970658203 970658202 540384185 29999825#0 29999825#1 29999825#2 30969502#0 30969502#1"/>
    </vehicle>
    <vehicle id="110" depart="132.00">
        <route edges="68546140 29999825#4"/>
    </vehicle>
    <vehicle id="111" depart="133.20">
        <route edges="34080354 23058446 278015285#0 278015285#1 278015285#2 970658205 970658204 970658203 970658202 540384185 29999825#0 29999825#1 29999825#2 30969502#0 30969502#1"/>
    </vehicle>
    <vehicle id="113" depart="135.60">
        <route edges="34080354 23058446 278015285#0 278015285#1 278015285#2 970658205 970658204 970658203 970658202 540384185 970658199 970658201#0 35829592#0 35829592#1 35829592#2 35829592#3"/>
    </vehicle>
    <vehicle id="114" depart="136.80">
        <route edges="-35829816 23058440 657820313 657820316 23058439 -23058439 -657820316 -657820313 -23058440 35829816"/>
    </vehicle>
    <vehicle id="116" depart="139.20">
        <route edges="35829777#0 35829777#1 35829777#2 970658200 970658207 970658206 970658205 970658204 970658203 970658202 540384185 29999825#0 29999825#1 29999825#2 30969502#0 30969502#1"/>
    </vehicle>
    <vehicle id="119" depart="142.80">
        <route edges="35829777#0 35829777#1 35829777#2 970658200 970658207 970658206 970658205 970658204 970658203 970658202 540384185 29999825#0 29999825#1 29999825#2 29999825#3 29999825#4"/>
    </vehicle>
    <vehicle id="120" depart="144.00">
        <route edges="279297825#0 279297825#1 279297825#2 279297825#3 970658203 970658202 540384185 29999825#0 29999825#1 29999825#2 29999825#3 29999825#4"/>
    </vehicle>
    <vehicle id="123" depart="147.60">
        <route edges="25491351#0 25491351#1 25491351#2 540384185 970658199 970658201#0 970658201#1 970658200 970658207 970658206 970658205 35830198#0 35830198#1 35830198#2 278015286"/>
    </vehicle>
    <vehicle id="124" depart="148.80">
        <route edges="540392791#0 540392791#1 540392791#2 540392791#3 970658201#0 970658201#1 970658200 970658207 970658206 970658205 970658204 970658203 25491237#0 25491237#1 25491237#2 25491237#3 25491237#4"/>
    </vehicle>
    <vehicle id="125" depart="150.00">
        <route edges="25491351#0 25491351#1 25491351#2 540384185 970658199 970658201#0 35829592#0 35829592#1 35829592#2 35829592#3"/>
    </vehicle>
    <vehicle id="131" depart="157.20">
        <route edges="279297825#0 279297825#1 279297825#2 279297825#3 970658203 970658202 540384185 970658199 970658201#0 970658201#1 970658200 970658207 23058445#0 23058445#1 23058445#2 23058445#3 23058448"/>
    </vehicle>
    <vehicle id="132" depart="158.40">
        <route edges="68546136#0 68546136#1 68546136#2 68546136#3 970658207 970658206 970658205 970658204 970658203 970658202 540384185 29999825#0 29999825#1 29999825#2 30969502#0 30969502#1"/>
    </vehicle>
    <vehicle id="135" depart="162.00">
        <route edges="68546136#0 68546136#1 68546136#2 68546136#3 970658207 970658206 970658205 970658204 970658203 25491237#0 25491237#1 25491237#2 25491237#3 25491237#4"/>
    </vehicle>
    <vehicle id="137" depart="164.40">
        <route edges="-35829816 23058440 657820313 657820316 23058439"/>
    </vehicle>
    <vehicle id="139" depart="166.80">
        <route edges="25491351#0 25491351#1 25491351#2 540384185 29999825#0 29999825#1 29999825#2 29999825#3 29999825#4"/>
    </vehicle>
    <vehicle id="140" depart="168.00">
        <route edges="540392791#0 540392791#1 540392791#2 540392791#3 970658201#0 970658201#1 970658200 970658207 23058445#0 23058445#1 23058445#2 23058445#3 23058448"/>
    </vehicle>
    <vehicle id="141" depart="169.20">
        <route edges="35829777#0 35829777#1 35829777#2 970658200 970658207 970658206 970658205 970658204 970658203 25491237#0 25491237#1 25491237#2 25491237#3 25491237#4"/>
    </vehicle>
    <vehicle id="144" depart="172.80">
        <route edges="279297825#0 279297825#1 279297825#2 279297825#3 970658203 25491237#0 25491237#1 25491237#2 25491237#3 25491237#4"/>
    </vehicle>
    <vehicle id="146" depart="175.20">
        <route edges="35829777#0 35829777#1 35829777#2 970658200 970658207 970658206 970658205 970658204 970658203 25491237#0 25491237#1 25491237#2 25491237#3 25491237#4"/>
    </vehicle>
    <vehicle id="147" depart="176.40">
        <route edges="540392791#0 540392791#1 540392791#2 540392791#3 970658201#0 970658201#1 970658200 970658207 970658206 970658205 970658204 970658203 970658202 540384185 29999825#0 29999825#1 29999825#2 29999825#3 29999825#4"/>
    </vehicle>
    <vehicle id="149" depart="178.80">
        <route edges="-23058439 -657820316 -657820313 -23058440 35829816"/>
    </vehicle>
    <vehicle id="150" depart="180.00">
        <route edges="68546140 29999825#4"/>
    </vehicle>
    <vehicle id="151" depart="181.20">
        <route edges="68546136#0 68546136#1 68546136#2 68546136#3 970658207 970658206 970658205 970658204 970658203 970658202 540384185 29999825#0 29999825#1 29999825#2 29999825#3 29999825#4"/>
    </vehicle>
    <vehicle id="154" depart="184.80">
        <route edges="68546136#0 68546136#1 68546136#2 68546136#3 970658207 970658206 970658205 970658204 970658203 970658202 540384185 970658199 970658201#0 35829592#0 35829592#1 35829592#2 35829592#3"/>
    </vehicle>
    <vehicle id="158" depart="189.60">
        <route edges="279297825#0 279297825#1 279297825#2 279297825#3 970658203 970658202 540384185 29999825#0 29999825#1 29999825#2 29999825#3 29999825#4"/>
    </vehicle>
    <vehicle id="159" depart="190.80">
        <route edges="-35829816 23058440 657820313 657820316 23058439 -23058439 -657820316 -657820313 -23058440 35829816"/>
    </vehicle>
    <vehicle id="164" depart="196.80">
        <route edges="68546136#0 68546136#1 68546136#2 68546136#3 970658207 970658206 970658205 970658204 970658203 970658202 540384185 970658199 970658201#0 35829592#0 35829592#1 35829592#2 35829592#3"/>
    </vehicle>
    <vehicle id="165" depart="198.00">
        <route edges="68546136#0 68546136#1 68546136#2 68546136#3 970658207 970658206 970658205 970658204 970658203 25491237#0 25491237#1 25491237#2 25491237#3 25491237#4"/>
    </vehicle>
    <vehicle id="167" depart="200.40">
        <route edges="68546136#0 68546136#1 68546136#2 68546136#3 970658207 970658206 970658205 970658204 970658203 970658202 540384185 970658199 970658201#0 35829592#0 35829592#1 35829592#2 35829592#3"/>
    </vehicle>
    <vehicle id="168" depart="201.60">
        <route edges="25491351#0 25491351#1 25491351#2 540384185 970658199 970658201#0 35829592#0 35829592#1 35829592#2 35829592#3"/>
    </vehicle>
    <vehicle id="169" depart="202.80">
        <route edges="34080354 23058446 278015285#0 278015285#1 278015285#2 970658205 970658204 970658203 25491237#0 25491237#1 25491237#2 25491237#3 25491237#4"/>
    </vehicle>
    <vehicle id="170" depart="204.00">
        <route edges="68546136#0 68546136#1 68546136#2 68546136#3 970658207 23058445#0 23058445#1 23058445#2 23058445#3 23058448"/>
    </vehicle>
    <vehicle id="172" depart="206.40">
        <route edges="25491351#0 25491351#1 25491351#2 540384185 970658199 970658201#0 35829592#0 35829592#1 35829592#2 35829592#3"/>
    </vehicle>
    <vehicle id="174" depart="208.80">
        <route edges="35829777#0 35829777#1 35829777#2 970658200 970658207 970658206 970658205 35830198#0 35830198#1 35830198#2 278015286"/>
    </vehicle>
    <vehicle id="175" depart="210.00">
        <route edges="68546140 29999825#4"/>
    </vehicle>
    <vehicle id="180" depart="216.00">
        <route edges="540392791#0 540392791#1 540392791#2 540392791#3 970658201#0 970658201#1 970658200 970658207 970658206 970658205 970658204 970658203 25491237#0 25491237#1 25491237#2 25491237#3 25491237#4"/>
    </vehicle>
    <vehicle id="181" depart="217.20">
        <route edges="35829777#0 35829777#1 35829777#2 970658200 970658207 970658206 970658205 970658204 970658203 970658202 540384185 29999825#0 29999825#1 29999825#2 29999825#3 29999825#4"/>
    </vehicle>
    <vehicle id="182" depart="218.40">
        <route edges="279297825#0 279297825#1 279297825#2 279297825#3 970658203 970658202 540384185 29999825#0 29999825#1 29999825#2 29999825#3 29999825#4"/>
    </vehicle>
    <vehicle id="183" depart="219.60">
        <route edges="25491351#0 25491351#1 25491351#2 540384185 29999825#0 29999825#1 29999825#2 30969502#0 30969502#1"/>
    </vehicle>
    <vehicle id="184" depart="220.80">
        <route edges="-23058439 -657820316 -657820313 -23058440 35829816"/>
    </vehicle>
    <vehicle id="185" depart="222.00">
        <route edges="34080354 23058446 278015285#0 278015285#1 278015285#2 970658205 970658204 970658203 970658202 540384185 29999825#0 29999825#1 29999825#2 30969502#0 30969502#1"/>
    </vehicle>
    <vehicle id="186" depart="223.20">
        <route edges="540392791#0 540392791#1 540392791#2 540392791#3 970658201#0 970658201#1 970658200 970658207 970658206 970658205 970658204 970658203 970658202 540384185 29999825#0 29999825#1 29999825#2 30969502#0 30969502#1"/>
    </vehicle>
    <vehicle id="188" depart="225.60">
        <route edges="35829777#0 35829777#1 35829777#2 970658200 970658207 970658206 970658205 970658204 970658203 25491237#0 25491237#1 25491237#2 25491237#3 25491237#4"/>
    </vehicle>
    <vehicle id="189" depart="226.80">
        <route edges="25491351#0 25491351#1 25491351#2 540384185 970658199 970658201#0 35829592#0 35829592#1 35829592#2 35829592#3"/>
    </vehicle>
    <vehicle id="190" depart="228.00">
        <route edges="540392791#0 540392791#1 540392791#2 540392791#3 970658201#0 970658201#1 970658200 970658207 970658206 970658205 970658204 970658203 25491237#0 25491237#1 25491237#2 25491237#3 25491237#4"/>
    </vehicle>
    <vehicle id="191" depart="229.20">
        <route edges="25491351#0 25491351#1 25491351#2 540384185 970658199 970658201#0 970658201#1 970658200 970658207 970658206 970658205 35830198#0 35830198#1 35830198#2 278015286"/>
    </vehicle>
    <vehicle id="192" depart="230.40">
        <route edges="279297825#0 279297825#1 279297825#2 279297825#3 970658203 25491237#0 25491237#1 25491237#2 25491237#3 25491237#4"/>
    </vehicle>
    <vehicle id="195" depart="234.00">
        <route edges="68546140 29999825#4"/>
    </vehicle>
    <vehicle id="196" depart="235.20">
        <route edges="25491351#0 25491351#1 25491351#2 540384185 29999825#0 29999825#1 29999825#2 29999825#3 29999825#4"/>
    </vehicle>
    <vehicle id="198" depart="237.60">
        <route edges="279297825#0 279297825#1 279297825#2 279297825#3 970658203 970658202 540384185 29999825#0 29999825#1 29999825#2 29999825#3 29999825#4"/>
    </vehicle>
    <vehicle id="199" depart="238.80">
        <route edges="35829777#0 35829777#1 35829777#2 970658200 970658207 970658206 970658205 35830198#0 35830198#1 35830198#2 278015286"/>
    </vehicle>
    <vehicle id="200" depart="240.00">
        <route edges="279297825#0 279297825#1 279297825#2 279297825#3 970658203 970658202 540384185 970658199 970658201#0 970658201#1 970658200 970658207 23058445#0 23058445#1 23058445#2 23058445#3 23058448"/>
    </vehicle>
    <vehicle id="202" depart="242.40">
        <route edges="68546136#0 68546136#1 68546136#2 68546136#3 970658207 23058445#0 23058445#1 23058445#2 23058445#3 23058448"/>
    </vehicle>
    <vehicle id="204" depart="244.80">
        <route edges="35829777#0 35829777#1 35829777#2 970658200 970658207 970658206 970658205 970658204 970658203 25491237#0 25491237#1 25491237#2 25491237#3 25491237#4"/>
    </vehicle>
    <vehicle id="205" depart="246.00">
        <route edges="68546136#0 68546136#1 68546136#2 68546136#3 970658207 970658206 970658205 970658204 970658203 970658202 540384185 970658199 970658201#0 35829592#0 35829592#1 35829592#2 35829592#3"/>
    </vehicle>
    <vehicle id="206" depart="247.20">
        <route edges="540392791#0 540392791#1 540392791#2 540392791#3 970658201#0 970658201#1 970658200 970658207 23058445#0 23058445#1 23058445#2 23058445#3 23058448"/>
    </vehicle>
    <vehicle id="207" depart="248.40">
        <route edges="-35829816 23058440 657820313 657820316 23058439"/>
    </vehicle>
    <vehicle id="208" depart="249.60">
        <route edges="25491351#0 25491351#1 25491351#2 540384185 970658199 970658201#0 970658201#1 970658200 970658207 970658206 970658205 35830198#0 35830198#1 35830198#2 278015286"/>
    </vehicle>
    <vehicle id="210" depart="252.00">
        <route edges="279297825#0 279297825#1 279297825#2 279297825#3 970658203 970658202 540384185 29999825#0 29999825#1 29999825#2 30969502#0 30969502#1"/>
    </vehicle>
    <vehicle id="212" depart="254.40">
        <route edges="34080354 23058446 278015285#0 278015285#1 278015285#2 970658205 970658204 970658203 970658202 540384185 970658199 970658201#0 970658201#1 970658200 970658207 23058445#0 23058445#1 23058445#2 23058445#3 23058448"/>
    </vehicle>
    <vehicle id="214" depart="256.80">
        <route edges="540392791#0 540392791#1 35829744#0 35829744#1 35829592#3"/>
    </vehicle>
    <vehicle id="216" depart="259.20">
        <route edges="-35829816 23058440 657820313 657820316 23058439 -23058439 -657820316 -657820313 -23058440 35829816"/>
    </vehicle>
    <vehicle id="218" depart="261.60">
        <route edges="25491351#0 25491351#1 25491351#2 540384185 970658199 970658201#0 35829592#0 35829592#1 35829592#2 35829592#3"/>
    </vehicle>
    <vehicle id="219" depart="262.80">
        <route edges="34080354 23058446 278015285#0 278015285#1 278015285#2 970658205 970658204 970658203 970658202 540384185 970658199 970658201#0 35829592#0 35829592#1 35829592#2 35829592#3"/>
    </vehicle>
    <vehicle id="222" depart="266.40">
        <route edges="68546140 29999825#4"/>
    </vehicle>
    <vehicle id="223" depart="267.60">
        <route edges="540392791#0 540392791#1 540392791#2 540392791#3 970658201#0 970658201#1 970658200 970658207 970658206 970658205 970658204 970658203 970658202 540384185 29999825#0 29999825#1 29999825#2 29999825#3 29999825#4"/>
    </vehicle>
    <vehicle id="224" depart="268.80">
        <route edges="68546136#0 68546136#1 68546136#2 68546136#3 970658207 970658206 970658205 970658204 970658203 970658202 540384185 29999825#0 29999825#1 29999825#2 29999825#3 29999825#4"/>
    </vehicle>
    <vehicle id="226" depart="271.20">
        <route edges="34080354 23058446 278015285#0 278015285#1 278015285#2 970658205 970658204 970658203 25491237#0 25491237#1 25491237#2 25491237#3 25491237#4"/>
    </vehicle>
    <vehicle id="227" depart="272.40">
        <route edges="25491351#0 25491351#1 25491351#2 540384185 29999825#0 29999825#1 29999825#2 30969502#0 30969502#1"/>
    </vehicle>
    <vehicle id="228" depart="273.60">
        <route edges="540392791#0 540392791#1 540392791#2 540392791#3 970658201#0 970658201#1 970658200 970658207 970658206 970658205 970658204 970658203 970658202 540384185 29999825#0 29999825#1 29999825#2 29999825#3 29999825#4"/>
    </vehicle>
    <vehicle id="229" depart="274.80">
        <route edges="35829777#0 35829777#1 35829777#2 970658200 970658207 970658206 970658205 970658204 970658203 25491237#0 25491237#1 25491237#2 25491237#3 25491237#4"/>
    </vehicle>
    <vehicle id="231" depart="277.20">
        <route edges="25491351#0 25491351#1 25491351#2 540384185 970658199 970658201#0 970658201#1 970658200 970658207 970658206 970658205 970658204 970658203 25491237#0 25491237#1 25491237#2 25491237#3 25491237#4"/>
    </vehicle>
    <vehicle id="232" depart="278.40">
        <route edges="34080354 23058446 278015285#0 278015285#1 278015285#2 970658205 970658204 970658203 970658202 540384185 970658199 970658201#0 970658201#1 970658200 970658207 23058445#0 23058445#1 23058445#2 23058445#3 23058448"/>
    </vehicle>
    <vehicle id="233" depart="279.60">