<?xml version="1.0" encoding="UTF-8"?>

<!-- generated on 2024-09-03 01:37:51 by Eclipse SUMO netconvert Version 1.20.0
<configuration xmlns:xsi="http://www.w3.org/2001/XMLSchema-instance" xsi:noNamespaceSchemaLocation="http://sumo.dlr.de/xsd/netconvertConfiguration.xsd">

    <input>
        <osm-files value="train_files/roundabout/middle/osm_files/map(3).osm"/>
    </input>

    <output>
        <output-file value="train_files/roundabout/middle/outputs/map(3)_dict/map(3)/map(3).net.xml"/>
    </output>

    <projection>
        <proj.utm value="true"/>
    </projection>

    <building_defaults>
        <default.junctions.keep-clear value="false"/>
    </building_defaults>

</configuration>
-->

<net version="1.20" junctionCornerDetail="5" limitTurnSpeed="5.50" xmlns:xsi="http://www.w3.org/2001/XMLSchema-instance" xsi:noNamespaceSchemaLocation="http://sumo.dlr.de/xsd/net_file.xsd">

    <location netOffset="-448498.28,-5414928.09" convBoundary="0.00,0.00,954.73,374.49" origBoundary="2.297480,48.885205,2.310467,48.888575" projParameter="+proj=utm +zone=31 +ellps=WGS84 +datum=WGS84 +units=m +no_defs"/>

    <type id="highway.cycleway" priority="1" numLanes="1" speed="5.56" allow="bicycle" oneway="0" width="2.00"/>
    <type id="highway.footway" priority="1" numLanes="1" speed="2.78" allow="pedestrian" oneway="1" width="2.00"/>
    <type id="highway.primary" priority="12" numLanes="2" speed="27.78" disallow="tram rail_urban rail rail_electric rail_fast ship container cable_car subway aircraft wheelchair scooter drone" oneway="0"/>
    <type id="highway.residential" priority="3" numLanes="1" speed="13.89" disallow="tram rail_urban rail rail_electric rail_fast ship container cable_car subway aircraft wheelchair scooter drone" oneway="0"/>
    <type id="highway.secondary" priority="11" numLanes="1" speed="27.78" disallow="tram rail_urban rail rail_electric rail_fast ship container cable_car subway aircraft wheelchair scooter drone" oneway="0"/>

    <edge id=":1987578932_0" function="internal">
        <lane id=":1987578932_0_0" index="0" disallow="tram rail_urban rail rail_electric rail_fast ship container cable_car subway aircraft wheelchair scooter drone" speed="8.33" length="19.87" shape="512.79,216.82 519.43,217.28 524.12,216.11 526.86,213.33 527.65,208.93"/>
    </edge>
    <edge id=":1987578932_1" function="internal">
        <lane id=":1987578932_1_0" index="0" disallow="tram rail_urban rail rail_electric rail_fast ship container cable_car subway aircraft wheelchair scooter drone" speed="11.11" length="25.72" shape="512.79,216.82 519.47,217.11 525.43,215.65 530.68,212.43 535.22,207.46"/>
    </edge>
    <edge id=":1987578932_2" function="internal">
        <lane id=":1987578932_2_0" index="0" disallow="tram rail_urban rail rail_electric rail_fast ship container cable_car subway aircraft wheelchair scooter drone" speed="8.33" length="27.62" shape="512.79,216.82 517.33,216.64 523.56,215.66 531.45,215.05 541.00,215.98"/>
        <lane id=":1987578932_2_1" index="1" disallow="tram rail_urban rail rail_electric rail_fast ship container cable_car subway aircraft wheelchair scooter drone" speed="8.33" length="27.62" shape="512.79,216.82 539.58,218.96"/>
    </edge>
    <edge id=":1987578932_4" function="internal">
        <lane id=":1987578932_4_0" index="0" disallow="tram rail_urban rail rail_electric rail_fast ship container cable_car subway aircraft wheelchair scooter drone" speed="8.33" length="19.06" shape="514.69,222.72 520.39,217.53 524.45,213.51 526.87,210.64 527.65,208.93"/>
    </edge>
    <edge id=":1987578932_5" function="internal">
        <lane id=":1987578932_5_0" index="0" disallow="tram rail_urban rail rail_electric rail_fast ship container cable_car subway aircraft wheelchair scooter drone" speed="11.11" length="27.06" shape="514.69,222.72 521.71,218.03 527.83,215.75 533.17,213.60 537.82,209.32"/>
    </edge>
    <edge id=":1987578932_6" function="internal">
        <lane id=":1987578932_6_0" index="0" disallow="tram rail_urban rail rail_electric rail_fast ship container cable_car subway aircraft wheelchair scooter drone" speed="8.33" length="23.92" shape="514.69,222.72 520.49,218.62 526.81,216.13 533.65,215.25 541.00,215.98"/>
        <lane id=":1987578932_6_1" index="1" disallow="tram rail_urban rail rail_electric rail_fast ship container cable_car subway aircraft wheelchair scooter drone" speed="8.33" length="23.92" shape="516.42,225.46 521.72,221.64 527.35,219.29 533.31,218.39 539.58,218.96"/>
        <lane id=":1987578932_6_2" index="2" disallow="tram rail_urban rail rail_electric rail_fast ship container cable_car subway aircraft wheelchair scooter drone" speed="8.33" length="23.92" shape="518.15,228.21 522.98,224.67 527.98,222.46 533.16,221.57 538.51,222.01"/>
        <lane id=":1987578932_6_3" index="3" disallow="tram rail_urban rail rail_electric rail_fast ship container cable_car subway aircraft wheelchair scooter drone" speed="8.33" length="23.92" shape="519.88,230.95 525.34,226.71 530.20,224.21 534.44,223.45 538.07,224.42"/>
    </edge>
    <edge id=":1987617275_0" function="internal">
        <lane id=":1987617275_0_0" index="0" disallow="tram rail_urban rail rail_electric rail_fast ship container cable_car subway aircraft wheelchair scooter drone" speed="3.65" length="4.67" shape="432.16,1.02 432.51,-0.38 433.14,-1.02 434.02,-0.91 435.18,-0.04"/>
    </edge>
    <edge id=":21292444_0" function="internal">
        <lane id=":21292444_0_0" index="0" disallow="tram rail_urban rail rail_electric rail_fast ship container cable_car subway aircraft wheelchair scooter drone" speed="8.33" length="10.84" shape="552.56,264.68 549.62,263.57 547.46,262.62 545.26,262.24 542.21,262.83"/>
    </edge>
    <edge id=":21292444_1" function="internal">
        <lane id=":21292444_1_0" index="0" disallow="tram rail_urban rail rail_electric rail_fast ship container cable_car subway aircraft wheelchair scooter drone" speed="8.33" length="8.12" shape="550.46,261.53 548.22,262.46 546.49,262.51 544.67,262.39 542.21,262.83"/>
        <lane id=":21292444_1_1" index="1" disallow="tram rail_urban rail rail_electric rail_fast ship container cable_car subway aircraft wheelchair scooter drone" speed="8.33" length="8.12" shape="548.80,258.79 546.75,259.62 545.15,259.59 543.48,259.41 541.23,259.79"/>
    </edge>
    <edge id=":21292449_0" function="internal">
        <lane id=":21292449_0_0" index="0" disallow="tram rail_urban rail rail_electric rail_fast ship container cable_car subway aircraft wheelchair scooter drone" speed="3.65" length="4.67" shape="712.22,-1.02 713.60,-1.43 714.47,-1.23 714.83,-0.42 714.68,1.02"/>
    </edge>
    <edge id=":2190217323_0" function="internal">
        <lane id=":2190217323_0_0" index="0" disallow="tram rail_urban rail rail_electric rail_fast ship container cable_car subway aircraft wheelchair scooter drone" speed="8.33" length="0.23" shape="18.08,33.06 17.90,32.91"/>
    </edge>
    <edge id=":2190217406_0" function="internal">
        <lane id=":2190217406_0_0" index="0" disallow="tram rail_urban rail rail_electric rail_fast ship container cable_car subway aircraft wheelchair scooter drone" speed="8.33" length="0.29" shape="280.23,194.46 279.96,194.35"/>
    </edge>
    <edge id=":2722937417_0" function="internal">
        <lane id=":2722937417_0_0" index="0" disallow="tram rail_urban rail rail_electric rail_fast ship container cable_car subway aircraft wheelchair scooter drone" speed="8.33" length="4.16" shape="500.62,214.74 504.72,215.48"/>
    </edge>
    <edge id=":2722937420_0" function="internal">
        <lane id=":2722937420_0_0" index="0" disallow="tram rail_urban rail rail_electric rail_fast ship container cable_car subway aircraft wheelchair scooter drone" speed="8.33" length="4.58" shape="567.31,226.93 571.82,227.72"/>
    </edge>
    <edge id=":2722937426_0" function="internal">
        <lane id=":2722937426_0_0" index="0" disallow="tram rail_urban rail rail_electric rail_fast ship container cable_car subway aircraft wheelchair scooter drone" speed="8.33" length="5.36" shape="500.49,256.65 498.91,256.70 497.82,256.68 496.73,256.55 495.17,256.27"/>
    </edge>
    <edge id=":2722937428_0" function="internal">
        <lane id=":2722937428_0_0" index="0" disallow="tram rail_urban rail rail_electric rail_fast ship container cable_car subway aircraft wheelchair scooter drone" speed="8.33" length="5.20" shape="563.16,267.44 561.64,267.19 560.60,266.99 559.58,266.72 558.10,266.30"/>
    </edge>
    <edge id=":27234261_0" function="internal">
        <lane id=":27234261_0_0" index="0" disallow="tram rail_urban rail rail_electric rail_fast ship container cable_car subway aircraft wheelchair scooter drone" speed="6.67" length="8.51" shape="587.64,161.37 586.54,163.27 586.28,165.18 586.85,167.10 588.25,169.03"/>
    </edge>
    <edge id=":27234261_1" function="internal">
        <lane id=":27234261_1_0" index="0" disallow="tram rail_urban rail rail_electric rail_fast ship container cable_car subway aircraft wheelchair scooter drone" speed="13.89" length="10.16" shape="587.64,161.37 581.30,169.31"/>
    </edge>
    <edge id=":27234261_2" function="internal">
        <lane id=":27234261_2_0" index="0" disallow="tram rail_urban rail rail_electric rail_fast ship container cable_car subway aircraft wheelchair scooter drone" speed="3.65" length="1.44" shape="587.64,161.37 586.26,161.81"/>
    </edge>
    <edge id=":27234261_6" function="internal">
        <lane id=":27234261_6_0" index="0" disallow="tram rail_urban rail rail_electric rail_fast ship container cable_car subway aircraft wheelchair scooter drone" speed="3.65" length="3.23" shape="586.26,161.81 585.39,161.62 585.01,160.81 585.14,159.38"/>
    </edge>
    <edge id=":27234261_3" function="internal">
        <lane id=":27234261_3_0" index="0" disallow="tram rail_urban rail rail_electric rail_fast ship container cable_car subway aircraft wheelchair scooter drone" speed="13.89" length="10.15" shape="578.80,167.31 585.14,159.38"/>
    </edge>
    <edge id=":27234261_4" function="internal">
        <lane id=":27234261_4_0" index="0" disallow="tram rail_urban rail rail_electric rail_fast ship container cable_car subway aircraft wheelchair scooter drone" speed="6.84" length="2.50" shape="578.80,167.31 580.74,165.73"/>
    </edge>
    <edge id=":27234261_5" function="internal">
        <lane id=":27234261_5_0" index="0" disallow="tram rail_urban rail rail_electric rail_fast ship container cable_car subway aircraft wheelchair scooter drone" speed="3.65" length="1.44" shape="578.80,167.31 580.17,166.87"/>
    </edge>
    <edge id=":27234261_7" function="internal">
        <lane id=":27234261_7_0" index="0" disallow="tram rail_urban rail rail_electric rail_fast ship container cable_car subway aircraft wheelchair scooter drone" speed="6.84" length="8.67" shape="580.74,165.73 582.96,165.49 585.46,166.59 588.25,169.03"/>
    </edge>
    <edge id=":27234261_8" function="internal">
        <lane id=":27234261_8_0" index="0" disallow="tram rail_urban rail rail_electric rail_fast ship container cable_car subway aircraft wheelchair scooter drone" speed="3.65" length="3.23" shape="580.17,166.87 581.05,167.06 581.42,167.87 581.30,169.31"/>
    </edge>
    <edge id=":27288863_0" function="internal">
        <lane id=":27288863_0_0" index="0" disallow="tram rail_urban rail rail_electric rail_fast ship container cable_car subway aircraft wheelchair scooter drone" speed="8.33" length="11.07" shape="525.76,266.66 521.98,265.94 519.48,264.91 517.32,263.22 514.50,260.51"/>
        <lane id=":27288863_0_1" index="1" disallow="tram rail_urban rail rail_electric rail_fast ship container cable_car subway aircraft wheelchair scooter drone" speed="8.33" length="11.07" shape="526.96,263.60 523.53,262.97 521.25,262.09 519.27,260.62 516.71,258.20"/>
        <lane id=":27288863_0_2" index="2" disallow="tram rail_urban rail rail_electric rail_fast ship container cable_car subway aircraft wheelchair scooter drone" speed="8.33" length="11.07" shape="528.16,260.53 525.13,259.89 522.58,258.90 520.51,257.57 518.93,255.89"/>
        <lane id=":27288863_0_3" index="3" disallow="tram rail_urban rail rail_electric rail_fast ship container cable_car subway aircraft wheelchair scooter drone" speed="8.33" length="11.07" shape="528.74,257.39 526.27,256.87 524.20,256.07 522.53,255.01 521.27,253.68"/>
    </edge>
    <edge id=":27288863_4" function="internal">
        <lane id=":27288863_4_0" index="0" disallow="tram rail_urban rail rail_electric rail_fast ship container cable_car subway aircraft wheelchair scooter drone" speed="8.63" length="6.26" shape="517.99,265.37 517.68,263.64 516.99,262.60 515.93,261.72 514.50,260.51"/>
        <lane id=":27288863_4_1" index="1" disallow="tram rail_urban rail rail_electric rail_fast ship container cable_car subway aircraft wheelchair scooter drone" speed="11.11" length="11.72" shape="521.68,268.49 520.94,265.09 520.26,262.74 519.05,260.69 516.71,258.20"/>
        <lane id=":27288863_4_2" index="2" disallow="tram rail_urban rail rail_electric rail_fast ship container cable_car subway aircraft wheelchair scooter drone" speed="11.11" length="13.14" shape="521.68,268.49 521.17,264.60 521.18,261.79 520.75,259.18 518.93,255.89"/>
    </edge>
    <edge id=":5310525393_0" function="internal">
        <lane id=":5310525393_0_0" index="0" disallow="tram rail_urban rail rail_electric rail_fast ship container cable_car subway aircraft wheelchair scooter drone" speed="8.33" length="5.14" shape="590.95,171.90 594.46,175.65"/>
    </edge>
    <edge id=":5468979996_0" function="internal">
        <lane id=":5468979996_0_0" index="0" disallow="tram rail_urban rail rail_electric rail_fast ship container cable_car subway aircraft wheelchair scooter drone" speed="13.89" length="2.01" shape="551.34,208.22 552.46,206.55"/>
    </edge>
    <edge id=":5468979996_1" function="internal">
        <lane id=":5468979996_1_0" index="0" disallow="tram rail_urban rail rail_electric rail_fast ship container cable_car subway aircraft wheelchair scooter drone" speed="13.89" length="2.16" shape="549.89,204.64 548.69,206.43"/>
    </edge>
    <edge id=":6046913626_0" function="internal">
        <lane id=":6046913626_0_0" index="0" disallow="tram rail_urban rail rail_electric rail_fast ship container cable_car subway aircraft wheelchair scooter drone" speed="8.33" length="0.30" shape="14.78,30.54 14.54,30.35"/>
    </edge>
    <edge id=":6060852533_0" function="internal">
        <lane id=":6060852533_0_0" index="0" disallow="tram rail_urban rail rail_electric rail_fast ship container cable_car subway aircraft wheelchair scooter drone" speed="8.33" length="19.27" shape="550.13,213.11 551.03,218.87 553.16,222.99 556.51,225.45 561.08,226.25"/>
    </edge>
    <edge id=":6060852533_1" function="internal">
        <lane id=":6060852533_1_0" index="0" disallow="tram rail_urban rail rail_electric rail_fast ship container cable_car subway aircraft wheelchair scooter drone" speed="8.33" length="20.97" shape="550.13,213.11 551.06,218.56 552.92,222.01 555.22,225.37 557.47,230.61"/>
        <lane id=":6060852533_1_1" index="1" disallow="tram rail_urban rail rail_electric rail_fast ship container cable_car subway aircraft wheelchair scooter drone" speed="8.33" length="20.97" shape="546.93,213.25 547.90,219.03 549.81,222.74 552.18,226.40 554.55,232.01"/>
        <lane id=":6060852533_1_2" index="2" disallow="tram rail_urban rail rail_electric rail_fast ship container cable_car subway aircraft wheelchair scooter drone" speed="8.33" length="20.97" shape="546.93,213.25 547.49,219.42 548.54,224.08 550.13,228.93 552.33,235.69"/>
    </edge>
    <edge id=":6060852533_4" function="internal">
        <lane id=":6060852533_4_0" index="0" disallow="tram rail_urban rail rail_electric rail_fast ship container cable_car subway aircraft wheelchair scooter drone" speed="8.33" length="22.57" shape="541.20,216.02 548.23,218.55 553.37,221.97 557.40,224.97 561.08,226.25"/>
    </edge>
    <edge id=":6060852533_5" function="internal">
        <lane id=":6060852533_5_0" index="0" disallow="tram rail_urban rail rail_electric rail_fast ship container cable_car subway aircraft wheelchair scooter drone" speed="8.33" length="20.42" shape="541.20,216.02 546.95,217.89 551.57,220.94 555.08,225.18 557.47,230.61"/>
        <lane id=":6060852533_5_1" index="1" disallow="tram rail_urban rail rail_electric rail_fast ship container cable_car subway aircraft wheelchair scooter drone" speed="8.33" length="20.42" shape="539.78,219.00 545.02,220.68 549.24,223.42 552.41,227.19 554.55,232.01"/>
        <lane id=":6060852533_5_2" index="2" disallow="tram rail_urban rail rail_electric rail_fast ship container cable_car subway aircraft wheelchair scooter drone" speed="8.33" length="20.42" shape="538.71,222.05 543.35,223.66 547.16,226.48 550.15,230.49 552.33,235.69"/>
        <lane id=":6060852533_5_3" index="3" disallow="tram rail_urban rail rail_electric rail_fast ship container cable_car subway aircraft wheelchair scooter drone" speed="8.33" length="20.42" shape="538.25,224.52 542.77,227.08 545.69,229.35 547.69,232.36 549.43,237.17"/>
    </edge>
    <edge id=":6219112392_0" function="internal">
        <lane id=":6219112392_0_0" index="0" disallow="tram rail_urban rail rail_electric rail_fast ship container cable_car subway aircraft wheelchair scooter drone" speed="11.11" length="11.90" shape="541.75,262.98 538.94,264.57 537.77,266.66 536.92,269.24 535.06,272.26"/>
        <lane id=":6219112392_0_1" index="1" disallow="tram rail_urban rail rail_electric rail_fast ship container cable_car subway aircraft wheelchair scooter drone" speed="11.11" length="12.44" shape="541.75,262.98 538.39,264.32 536.34,265.77 534.62,267.73 532.27,270.59"/>
    </edge>
    <edge id=":6219112392_2" function="internal">
        <lane id=":6219112392_2_0" index="0" disallow="tram rail_urban rail rail_electric rail_fast ship container cable_car subway aircraft wheelchair scooter drone" speed="8.33" length="12.77" shape="541.75,262.98 538.11,264.62 535.66,266.18 533.16,267.20 529.37,267.17"/>
        <lane id=":6219112392_2_1" index="1" disallow="tram rail_urban rail rail_electric rail_fast ship container cable_car subway aircraft wheelchair scooter drone" speed="8.33" length="12.77" shape="541.75,262.98 538.09,264.08 535.48,264.52 532.82,264.41 529.02,263.89"/>
        <lane id=":6219112392_2_2" index="2" disallow="tram rail_urban rail rail_electric rail_fast ship container cable_car subway aircraft wheelchair scooter drone" speed="8.33" length="12.77" shape="540.77,259.94 537.29,260.95 534.81,261.30 532.28,261.13 528.67,260.61"/>
        <lane id=":6219112392_2_3" index="3" disallow="tram rail_urban rail rail_electric rail_fast ship container cable_car subway aircraft wheelchair scooter drone" speed="8.33" length="12.77" shape="540.77,259.94 537.33,260.45 534.94,259.70 532.50,258.43 528.94,257.41"/>
    </edge>
    <edge id=":8659032464_0" function="internal">
        <lane id=":8659032464_0_0" index="0" disallow="tram rail_urban rail rail_electric rail_fast ship container cable_car subway aircraft wheelchair scooter drone" speed="8.33" length="8.21" shape="652.89,238.07 654.44,239.98 655.54,241.38 656.86,242.35 659.11,242.96"/>
    </edge>
    <edge id=":8659032464_1" function="internal">
        <lane id=":8659032464_1_0" index="0" disallow="tram rail_urban rail rail_electric rail_fast ship container cable_car subway aircraft wheelchair scooter drone" speed="8.33" length="8.26" shape="650.97,241.57 659.11,242.96"/>
    </edge>
    <edge id=":9022341661_0" function="internal">
        <lane id=":9022341661_0_0" index="0" allow="bus bicycle" speed="13.89" length="4.75" shape="534.94,272.40 533.90,273.51 533.13,274.23 532.41,274.99 531.52,276.22"/>
        <lane id=":9022341661_0_1" index="1" disallow="tram rail_urban rail rail_electric rail_fast ship container cable_car subway aircraft wheelchair scooter drone" speed="13.89" length="4.75" shape="532.14,270.74 531.25,271.68 530.58,272.27 529.95,272.89 529.19,273.93"/>
    </edge>
    <edge id=":9022341662_0" function="internal">
        <lane id=":9022341662_0_0" index="0" disallow="tram rail_urban rail rail_electric rail_fast ship container cable_car subway aircraft wheelchair scooter drone" speed="13.89" length="7.44" shape="519.77,274.84 519.61,272.06 519.05,270.20 518.41,268.34 518.00,265.57"/>
        <lane id=":9022341662_0_1" index="1" disallow="tram rail_urban rail rail_electric rail_fast ship container cable_car subway aircraft wheelchair scooter drone" speed="13.89" length="7.44" shape="522.95,273.92 522.73,272.34 522.46,271.28 522.14,270.23 521.73,268.68"/>
    </edge>
    <edge id=":9094505115_0" function="internal">
        <lane id=":9094505115_0_0" index="0" disallow="tram rail_urban rail rail_electric rail_fast ship container cable_car subway aircraft wheelchair scooter drone" speed="8.33" length="4.20" shape="522.73,193.01 520.85,189.25"/>
    </edge>
    <edge id=":9094505115_1" function="internal">
        <lane id=":9094505115_1_0" index="0" disallow="tram rail_urban rail rail_electric rail_fast ship container cable_car subway aircraft wheelchair scooter drone" speed="8.33" length="4.11" shape="523.73,187.85 525.56,191.52"/>
    </edge>
    <edge id=":9094611617_0" function="internal">
        <lane id=":9094611617_0_0" index="0" disallow="tram rail_urban rail rail_electric rail_fast ship container cable_car subway aircraft wheelchair scooter drone" speed="13.89" length="3.96" shape="561.64,194.14 559.19,197.25"/>
    </edge>
    <edge id=":9094611617_1" function="internal">
        <lane id=":9094611617_1_0" index="0" disallow="tram rail_urban rail rail_electric rail_fast ship container cable_car subway aircraft wheelchair scooter drone" speed="13.89" length="3.99" shape="556.66,195.29 559.13,192.15"/>
    </edge>
    <edge id=":944668511_0" function="internal">
        <lane id=":944668511_0_0" index="0" disallow="tram rail_urban rail rail_electric rail_fast ship container cable_car subway aircraft wheelchair scooter drone" speed="8.33" length="1.12" shape="551.84,259.99 551.51,260.45 551.31,260.79 551.07,261.10 550.63,261.42"/>
        <lane id=":944668511_0_1" index="1" disallow="tram rail_urban rail rail_electric rail_fast ship container cable_car subway aircraft wheelchair scooter drone" speed="8.33" length="1.12" shape="549.39,257.93 548.97,258.69"/>
        <lane id=":944668511_0_2" index="2" disallow="tram rail_urban rail rail_electric rail_fast ship container cable_car subway aircraft wheelchair scooter drone" speed="8.33" length="1.12" shape="546.93,255.88 547.31,255.95"/>
        <lane id=":944668511_0_3" index="3" disallow="tram rail_urban rail rail_electric rail_fast ship container cable_car subway aircraft wheelchair scooter drone" speed="8.33" length="1.12" shape="544.48,253.83 545.65,253.22"/>
    </edge>
    <edge id=":944668513_0" function="internal">
        <lane id=":944668513_0_0" index="0" allow="bicycle" speed="6.09" length="5.83" width="2.00" shape="510.52,227.03 511.39,225.27 511.81,223.78 511.77,222.55 511.27,221.58"/>
    </edge>
    <edge id=":944668513_1" function="internal">
        <lane id=":944668513_1_0" index="0" disallow="tram rail_urban rail rail_electric rail_fast ship container cable_car subway aircraft wheelchair scooter drone" speed="8.33" length="3.43" shape="511.04,227.33 511.89,225.86 512.53,224.88 513.29,224.00 514.54,222.86"/>
        <lane id=":944668513_1_1" index="1" disallow="tram rail_urban rail rail_electric rail_fast ship container cable_car subway aircraft wheelchair scooter drone" speed="8.33" length="3.43" shape="513.80,228.94 514.41,227.86 514.84,227.11 515.37,226.45 516.27,225.60"/>
        <lane id=":944668513_1_2" index="2" disallow="tram rail_urban rail rail_electric rail_fast ship container cable_car subway aircraft wheelchair scooter drone" speed="8.33" length="3.43" shape="516.57,230.55 516.93,229.85 517.16,229.35 517.45,228.89 518.00,228.34"/>
        <lane id=":944668513_1_3" index="3" disallow="tram rail_urban rail rail_electric rail_fast ship container cable_car subway aircraft wheelchair scooter drone" speed="8.33" length="3.43" shape="519.33,232.17 519.73,231.08"/>
    </edge>
    <edge id=":9738056575_0" function="internal">
        <lane id=":9738056575_0_0" index="0" disallow="tram rail_urban rail rail_electric rail_fast ship container cable_car subway aircraft wheelchair scooter drone" speed="7.45" length="8.52" shape="513.49,259.31 511.91,257.57 510.16,256.48 508.22,256.04 506.11,256.24"/>
    </edge>
    <edge id=":9738056575_1" function="internal">
        <lane id=":9738056575_1_0" index="0" disallow="tram rail_urban rail rail_electric rail_fast ship container cable_car subway aircraft wheelchair scooter drone" speed="8.33" length="8.89" shape="513.49,259.31 511.81,256.92 510.78,255.20 509.90,253.39 508.69,250.72"/>
        <lane id=":9738056575_1_1" index="1" disallow="tram rail_urban rail rail_electric rail_fast ship container cable_car subway aircraft wheelchair scooter drone" speed="8.33" length="8.89" shape="516.09,257.43 514.51,255.19 513.55,253.58 512.73,251.89 511.60,249.39"/>
        <lane id=":9738056575_1_2" index="2" disallow="tram rail_urban rail rail_electric rail_fast ship container cable_car subway aircraft wheelchair scooter drone" speed="8.33" length="8.89" shape="518.68,255.55 517.22,253.46 516.32,251.96 515.56,250.38 514.51,248.05"/>
        <lane id=":9738056575_1_3" index="3" disallow="tram rail_urban rail rail_electric rail_fast ship container cable_car subway aircraft wheelchair scooter drone" speed="8.33" length="8.89" shape="521.18,253.55 519.85,251.65 519.05,250.28 518.37,248.84 517.41,246.72"/>
    </edge>
    <edge id=":9844108709_0" function="internal">
        <lane id=":9844108709_0_0" index="0" disallow="tram rail_urban rail rail_electric rail_fast ship container cable_car subway aircraft wheelchair scooter drone" speed="13.89" length="8.96" shape="556.54,200.68 551.45,208.05"/>
    </edge>
    <edge id=":9844108709_1" function="internal">
        <lane id=":9844108709_1_0" index="0" disallow="tram rail_urban rail rail_electric rail_fast ship container cable_car subway aircraft wheelchair scooter drone" speed="3.65" length="1.44" shape="556.54,200.68 555.17,201.14"/>
    </edge>
    <edge id=":9844108709_6" function="internal">
        <lane id=":9844108709_6_0" index="0" disallow="tram rail_urban rail rail_electric rail_fast ship container cable_car subway aircraft wheelchair scooter drone" speed="3.65" length="3.23" shape="555.17,201.14 554.29,200.96 553.90,200.15 554.01,198.72"/>
    </edge>
    <edge id=":9844108709_2" function="internal">
        <lane id=":9844108709_2_0" index="0" disallow="tram rail_urban rail rail_electric rail_fast ship container cable_car subway aircraft wheelchair scooter drone" speed="11.65" length="9.59" shape="545.25,201.54 548.10,201.13 550.24,201.07 552.08,200.53 554.01,198.72"/>
    </edge>
    <edge id=":9844108709_3" function="internal">
        <lane id=":9844108709_3_0" index="0" disallow="tram rail_urban rail rail_electric rail_fast ship container cable_car subway aircraft wheelchair scooter drone" speed="5.52" length="5.41" shape="546.03,204.64 549.86,203.97 551.37,204.21"/>
    </edge>
    <edge id=":9844108709_7" function="internal">
        <lane id=":9844108709_7_0" index="0" disallow="tram rail_urban rail rail_electric rail_fast ship container cable_car subway aircraft wheelchair scooter drone" speed="5.52" length="4.76" shape="551.37,204.21 552.03,204.32 552.57,205.68 551.45,208.05"/>
    </edge>
    <edge id=":9844108709_4" function="internal">
        <lane id=":9844108709_4_0" index="0" disallow="tram rail_urban rail rail_electric rail_fast ship container cable_car subway aircraft wheelchair scooter drone" speed="13.89" length="9.17" shape="548.80,206.27 554.01,198.72"/>
    </edge>
    <edge id=":9844108709_5" function="internal">
        <lane id=":9844108709_5_0" index="0" disallow="tram rail_urban rail rail_electric rail_fast ship container cable_car subway aircraft wheelchair scooter drone" speed="3.65" length="4.67" shape="548.80,206.27 550.13,205.72 551.02,205.83 551.46,206.61 551.45,208.05"/>
    </edge>
    <edge id=":9844108710_0" function="internal">
        <lane id=":9844108710_0_0" index="0" disallow="tram rail_urban rail rail_electric rail_fast ship container cable_car subway aircraft wheelchair scooter drone" speed="11.11" length="10.78" shape="534.75,202.36 537.51,203.42 539.67,203.34 541.95,202.58 545.05,201.59"/>
    </edge>
    <edge id=":9844108710_1" function="internal">
        <lane id=":9844108710_1_0" index="0" disallow="tram rail_urban rail rail_electric rail_fast ship container cable_car subway aircraft wheelchair scooter drone" speed="8.33" length="10.81" shape="534.75,202.36 544.25,207.51"/>
    </edge>
    <edge id=":9844108710_2" function="internal">
        <lane id=":9844108710_2_0" index="0" disallow="tram rail_urban rail rail_electric rail_fast ship container cable_car subway aircraft wheelchair scooter drone" speed="11.90" length="9.88" shape="535.75,206.71 537.78,204.27 539.63,203.02 541.86,202.33 545.05,201.59"/>
        <lane id=":9844108710_2_1" index="1" disallow="tram rail_urban rail rail_electric rail_fast ship container cable_car subway aircraft wheelchair scooter drone" speed="10.65" length="9.88" shape="538.36,208.57 539.98,206.66 541.48,205.73 543.29,205.25 545.84,204.69"/>
    </edge>
    <edge id=":9844108710_4" function="internal">
        <lane id=":9844108710_4_0" index="0" disallow="tram rail_urban rail rail_electric rail_fast ship container cable_car subway aircraft wheelchair scooter drone" speed="5.94" length="6.65" shape="538.36,208.57 539.55,207.35 540.92,206.77 542.49,206.82 544.25,207.51"/>
    </edge>
    <edge id=":9844108712_0" function="internal">