<?xml version="1.0" encoding="UTF-8"?>

<!-- generated on 2024-09-03 01:37:13 by Eclipse SUMO netconvert Version 1.20.0
<configuration xmlns:xsi="http://www.w3.org/2001/XMLSchema-instance" xsi:noNamespaceSchemaLocation="http://sumo.dlr.de/xsd/netconvertConfiguration.xsd">

    <input>
        <osm-files value="train_files/intersection/easy/osm_files/map(94).osm"/>
    </input>

    <output>
        <output-file value="train_files/intersection/easy/outputs/map(94)_dict/map(94)/map(94).net.xml"/>
    </output>

    <projection>
        <proj.utm value="true"/>
    </projection>

    <building_defaults>
        <default.junctions.keep-clear value="false"/>
    </building_defaults>

</configuration>
-->

<net version="1.20" junctionCornerDetail="5" limitTurnSpeed="5.50" xmlns:xsi="http://www.w3.org/2001/XMLSchema-instance" xsi:noNamespaceSchemaLocation="http://sumo.dlr.de/xsd/net_file.xsd">

    <location netOffset="-432625.04,-5889378.01" convBoundary="0.00,0.00,611.04,738.50" origBoundary="25.992454,53.149600,26.001694,53.156213" projParameter="+proj=utm +zone=35 +ellps=WGS84 +datum=WGS84 +units=m +no_defs"/>

    <type id="highway.footway" priority="1" numLanes="1" speed="2.78" allow="pedestrian" oneway="1" width="2.00"/>
    <type id="highway.primary" priority="12" numLanes="2" speed="27.78" disallow="tram rail_urban rail rail_electric rail_fast ship container cable_car subway aircraft wheelchair scooter drone" oneway="0"/>
    <type id="highway.secondary" priority="11" numLanes="1" speed="27.78" disallow="tram rail_urban rail rail_electric rail_fast ship container cable_car subway aircraft wheelchair scooter drone" oneway="0"/>
    <type id="highway.service" priority="1" numLanes="1" speed="5.56" allow="pedestrian delivery bicycle" oneway="0"/>

    <edge id=":275428869_0" function="internal">
        <lane id=":275428869_0_0" index="0" disallow="tram rail_urban rail rail_electric rail_fast ship container cable_car subway aircraft wheelchair scooter drone" speed="7.02" length="11.02" shape="243.85,650.44 240.62,649.03 237.93,648.74 235.81,649.57 234.24,651.53"/>
    </edge>
    <edge id=":275428869_1" function="internal">
        <lane id=":275428869_1_0" index="0" disallow="tram rail_urban rail rail_electric rail_fast ship container cable_car subway aircraft wheelchair scooter drone" speed="19.45" length="23.34" shape="243.85,650.44 223.28,639.56"/>
        <lane id=":275428869_1_1" index="1" disallow="tram rail_urban rail rail_electric rail_fast ship container cable_car subway aircraft wheelchair scooter drone" speed="19.45" length="23.34" shape="245.42,647.65 224.73,636.71"/>
    </edge>
    <edge id=":275428869_3" function="internal">
        <lane id=":275428869_3_0" index="0" disallow="tram rail_urban rail rail_electric rail_fast ship container cable_car subway aircraft wheelchair scooter drone" speed="13.33" length="2.27" shape="245.42,647.65 243.88,645.99"/>
    </edge>
    <edge id=":275428869_4" function="internal">
        <lane id=":275428869_4_0" index="0" disallow="tram rail_urban rail rail_electric rail_fast ship container cable_car subway aircraft wheelchair scooter drone" speed="3.65" length="1.44" shape="245.42,647.65 244.77,646.37"/>
    </edge>
    <edge id=":275428869_20" function="internal">
        <lane id=":275428869_20_0" index="0" disallow="tram rail_urban rail rail_electric rail_fast ship container cable_car subway aircraft wheelchair scooter drone" speed="13.33" length="28.44" shape="243.88,645.99 242.15,644.12 240.44,638.10 240.30,629.57 241.72,618.55"/>
    </edge>
    <edge id=":275428869_21" function="internal">
        <lane id=":275428869_21_0" index="0" disallow="tram rail_urban rail rail_electric rail_fast ship container cable_car subway aircraft wheelchair scooter drone" speed="3.65" length="3.23" shape="244.77,646.37 244.81,645.47 245.55,644.97 246.99,644.86"/>
    </edge>
    <edge id=":275428869_5" function="internal">
        <lane id=":275428869_5_0" index="0" disallow="tram rail_urban rail rail_electric rail_fast ship container cable_car subway aircraft wheelchair scooter drone" speed="8.81" length="19.51" shape="254.50,625.14 249.98,631.47 247.48,636.40 247.01,639.93 248.56,642.07"/>
    </edge>
    <edge id=":275428869_6" function="internal">
        <lane id=":275428869_6_0" index="0" disallow="tram rail_urban rail rail_electric rail_fast ship container cable_car subway aircraft wheelchair scooter drone" speed="25.00" length="33.51" shape="251.98,623.16 245.62,631.94 240.49,640.10 236.67,646.88 234.24,651.53"/>
    </edge>
    <edge id=":275428869_7" function="internal">
        <lane id=":275428869_7_0" index="0" disallow="tram rail_urban rail rail_electric rail_fast ship container cable_car subway aircraft wheelchair scooter drone" speed="12.57" length="5.55" shape="249.47,621.18 245.80,625.35"/>
    </edge>
    <edge id=":275428869_8" function="internal">
        <lane id=":275428869_8_0" index="0" disallow="tram rail_urban rail rail_electric rail_fast ship container cable_car subway aircraft wheelchair scooter drone" speed="5.57" length="4.81" shape="249.47,621.18 246.77,624.12 246.01,624.41"/>
    </edge>
    <edge id=":275428869_22" function="internal">
        <lane id=":275428869_22_0" index="0" disallow="tram rail_urban rail rail_electric rail_fast ship container cable_car subway aircraft wheelchair scooter drone" speed="12.57" length="25.48" shape="245.80,625.35 242.00,629.67 235.39,635.09 229.63,637.44 224.73,636.71"/>
    </edge>
    <edge id=":275428869_23" function="internal">
        <lane id=":275428869_23_0" index="0" disallow="tram rail_urban rail rail_electric rail_fast ship container cable_car subway aircraft wheelchair scooter drone" speed="5.57" length="6.75" shape="246.01,624.41 245.10,624.76 244.47,623.09 244.87,619.12"/>
    </edge>
    <edge id=":275428869_9" function="internal">
        <lane id=":275428869_9_0" index="0" disallow="tram rail_urban rail rail_electric rail_fast ship container cable_car subway aircraft wheelchair scooter drone" speed="8.54" length="19.91" shape="227.62,631.00 231.26,631.68 234.30,629.74 236.74,625.18 238.57,617.99"/>
    </edge>
    <edge id=":275428869_10" function="internal">
        <lane id=":275428869_10_0" index="0" disallow="tram rail_urban rail rail_electric rail_fast ship container cable_car subway aircraft wheelchair scooter drone" speed="19.45" length="23.62" shape="227.62,631.00 248.56,642.07"/>
        <lane id=":275428869_10_1" index="1" disallow="tram rail_urban rail rail_electric rail_fast ship container cable_car subway aircraft wheelchair scooter drone" speed="19.45" length="23.62" shape="226.17,633.85 246.99,644.86"/>
    </edge>
    <edge id=":275428869_12" function="internal">
        <lane id=":275428869_12_0" index="0" disallow="tram rail_urban rail rail_electric rail_fast ship container cable_car subway aircraft wheelchair scooter drone" speed="9.85" length="6.70" shape="226.17,633.85 231.77,637.53"/>
    </edge>
    <edge id=":275428869_13" function="internal">
        <lane id=":275428869_13_0" index="0" disallow="tram rail_urban rail rail_electric rail_fast ship container cable_car subway aircraft wheelchair scooter drone" speed="3.65" length="1.44" shape="226.17,633.85 226.88,635.11"/>
    </edge>
    <edge id=":275428869_24" function="internal">
        <lane id=":275428869_24_0" index="0" disallow="tram rail_urban rail rail_electric rail_fast ship container cable_car subway aircraft wheelchair scooter drone" speed="9.85" length="15.40" shape="231.77,637.53 234.99,641.71 235.81,646.38 234.24,651.53"/>
    </edge>
    <edge id=":275428869_25" function="internal">
        <lane id=":275428869_25_0" index="0" disallow="tram rail_urban rail rail_electric rail_fast ship container cable_car subway aircraft wheelchair scooter drone" speed="3.65" length="3.23" shape="226.88,635.11 226.88,636.00 226.16,636.53 224.73,636.71"/>
    </edge>
    <edge id=":275428869_14" function="internal">
        <lane id=":275428869_14_0" index="0" disallow="tram rail_urban rail rail_electric rail_fast ship container cable_car subway aircraft wheelchair scooter drone" speed="6.52" length="9.11" shape="225.69,647.17 226.52,644.79 226.39,642.73 225.31,640.99 223.28,639.56"/>
    </edge>
    <edge id=":275428869_15" function="internal">
        <lane id=":275428869_15_0" index="0" disallow="tram rail_urban rail rail_electric rail_fast ship container cable_car subway aircraft wheelchair scooter drone" speed="25.00" length="33.05" shape="225.69,647.17 230.21,639.05 233.70,633.10 236.40,626.90 238.57,617.99"/>
        <lane id=":275428869_15_1" index="1" disallow="tram rail_urban rail rail_electric rail_fast ship container cable_car subway aircraft wheelchair scooter drone" speed="25.00" length="33.05" shape="228.54,648.62 233.11,640.37 236.70,634.11 239.50,627.60 241.72,618.55"/>
        <lane id=":275428869_15_2" index="2" disallow="tram rail_urban rail rail_electric rail_fast ship container cable_car subway aircraft wheelchair scooter drone" speed="25.00" length="33.05" shape="231.39,650.08 236.01,641.68 239.70,635.13 242.61,628.31 244.87,619.12"/>
    </edge>
    <edge id=":275428869_18" function="internal">
        <lane id=":275428869_18_0" index="0" disallow="tram rail_urban rail rail_electric rail_fast ship container cable_car subway aircraft wheelchair scooter drone" speed="9.03" length="5.36" shape="231.39,650.08 234.45,645.68"/>
    </edge>
    <edge id=":275428869_19" function="internal">
        <lane id=":275428869_19_0" index="0" disallow="tram rail_urban rail rail_electric rail_fast ship container cable_car subway aircraft wheelchair scooter drone" speed="3.65" length="1.44" shape="231.39,650.08 232.65,649.37"/>
    </edge>
    <edge id=":275428869_26" function="internal">
        <lane id=":275428869_26_0" index="0" disallow="tram rail_urban rail rail_electric rail_fast ship container cable_car subway aircraft wheelchair scooter drone" speed="9.03" length="13.56" shape="234.45,645.68 238.07,643.34 242.25,643.07 246.99,644.86"/>
    </edge>
    <edge id=":275428869_27" function="internal">
        <lane id=":275428869_27_0" index="0" disallow="tram rail_urban rail rail_electric rail_fast ship container cable_car subway aircraft wheelchair scooter drone" speed="3.65" length="3.23" shape="232.65,649.37 233.55,649.38 234.08,650.10 234.24,651.53"/>
    </edge>
    <edge id=":6142001571_0" function="internal">
        <lane id=":6142001571_0_0" index="0" disallow="tram rail_urban rail rail_electric rail_fast ship container cable_car subway aircraft wheelchair scooter drone" speed="27.78" length="5.20" shape="200.34,627.96 195.70,625.71"/>
        <lane id=":6142001571_0_1" index="1" disallow="tram rail_urban rail rail_electric rail_fast ship container cable_car subway aircraft wheelchair scooter drone" speed="27.78" length="5.20" shape="201.78,625.10 197.05,622.81"/>
    </edge>
    <edge id=":6142001571_2" function="internal">
        <lane id=":6142001571_2_0" index="0" disallow="tram rail_urban rail rail_electric rail_fast ship container cable_car subway aircraft wheelchair scooter drone" speed="27.78" length="5.43" shape="199.73,617.00 204.67,619.39"/>
        <lane id=":6142001571_2_1" index="1" disallow="tram rail_urban rail rail_electric rail_fast ship container cable_car subway aircraft wheelchair scooter drone" speed="27.78" length="5.43" shape="198.39,619.90 203.22,622.25"/>
    </edge>
    <edge id=":6142001572_0" function="internal">
        <lane id=":6142001572_0_0" index="0" disallow="tram rail_urban rail rail_electric rail_fast ship container cable_car subway aircraft wheelchair scooter drone" speed="3.65" length="4.67" shape="192.44,731.04 191.16,731.71 190.27,731.68 189.75,730.95 189.63,729.51"/>
    </edge>
    <edge id=":6290996553_0" function="internal">
        <lane id=":6290996553_0_0" index="0" disallow="tram rail_urban rail rail_electric rail_fast ship container cable_car subway aircraft wheelchair scooter drone" speed="3.65" length="4.67" shape="411.20,737.10 411.86,738.39 411.81,739.28 411.07,739.78 409.64,739.89"/>
    </edge>
    <edge id=":727432334_0" function="internal">
        <lane id=":727432334_0_0" index="0" disallow="tram rail_urban rail rail_electric rail_fast ship container cable_car subway aircraft wheelchair scooter drone" speed="3.65" length="4.67" shape="107.71,581.49 106.95,580.26 106.93,579.36 107.62,578.80 109.05,578.58"/>
    </edge>
    <edge id=":8100655949_0" function="internal">
        <lane id=":8100655949_0_0" index="0" allow="pedestrian delivery bicycle" speed="5.56" length="9.54" shape="298.49,622.98 290.11,618.42"/>
    </edge>
    <edge id=":8100655949_1" function="internal">
        <lane id=":8100655949_1_0" index="0" allow="pedestrian delivery bicycle" speed="5.56" length="10.25" shape="298.49,622.98 296.29,621.36 295.12,619.38 294.97,617.03 295.86,614.31"/>
    </edge>
    <edge id=":8100655949_2" function="internal">
        <lane id=":8100655949_2_0" index="0" allow="pedestrian delivery bicycle" speed="3.65" length="4.67" shape="298.49,622.98 297.80,621.71 297.82,620.82 298.54,620.29 299.98,620.14"/>
    </edge>
    <edge id=":8100655949_3" function="internal">
        <lane id=":8100655949_3_0" index="0" allow="pedestrian delivery bicycle" speed="5.19" length="5.22" shape="298.74,615.70 298.27,617.11 298.32,618.32 298.89,619.33 299.98,620.14"/>
    </edge>
    <edge id=":8100655949_4" function="internal">
        <lane id=":8100655949_4_0" index="0" allow="pedestrian delivery bicycle" speed="5.56" length="10.48" shape="298.74,615.70 297.13,618.10 295.15,619.36 292.81,619.46 290.11,618.42"/>
    </edge>
    <edge id=":8100655949_5" function="internal">
        <lane id=":8100655949_5_0" index="0" allow="pedestrian delivery bicycle" speed="3.65" length="4.67" shape="298.74,615.70 297.50,616.43 296.61,616.44 296.06,615.74 295.86,614.31"/>
    </edge>
    <edge id=":8100655949_6" function="internal">
        <lane id=":8100655949_6_0" index="0" allow="pedestrian delivery bicycle" speed="4.98" length="5.08" shape="291.68,615.63 292.98,616.13 294.12,616.08 295.08,615.47 295.86,614.31"/>
    </edge>
    <edge id=":8100655949_7" function="internal">
        <lane id=":8100655949_7_0" index="0" allow="pedestrian delivery bicycle" speed="5.56" length="9.45" shape="291.68,615.63 299.98,620.14"/>
    </edge>
    <edge id=":8100655949_8" function="internal">
        <lane id=":8100655949_8_0" index="0" allow="pedestrian delivery bicycle" speed="3.65" length="4.67" shape="291.68,615.63 292.33,616.91 292.29,617.81 291.55,618.31 290.11,618.42"/>
    </edge>
    <edge id=":8100655950_0" function="internal">
        <lane id=":8100655950_0_0" index="0" allow="pedestrian delivery bicycle" speed="5.56" length="5.33" shape="324.10,544.26 319.31,541.92"/>
    </edge>
    <edge id=":8100655950_1" function="internal">
        <lane id=":8100655950_1_0" index="0" allow="pedestrian delivery bicycle" speed="3.65" length="1.44" shape="324.10,544.26 323.33,543.04"/>
    </edge>
    <edge id=":8100655950_4" function="internal">
        <lane id=":8100655950_4_0" index="0" allow="pedestrian delivery bicycle" speed="3.65" length="3.23" shape="323.33,543.04 323.29,542.15 323.98,541.58 325.40,541.34"/>
    </edge>
    <edge id=":8100655950_2" function="internal">
        <lane id=":8100655950_2_0" index="0" allow="pedestrian delivery bicycle" speed="5.56" length="5.11" shape="320.81,539.10 325.40,541.34"/>
    </edge>
    <edge id=":8100655950_3" function="internal">
        <lane id=":8100655950_3_0" index="0" allow="pedestrian delivery bicycle" speed="3.65" length="1.44" shape="320.81,539.10 321.50,540.37"/>
    </edge>
    <edge id=":8100655950_5" function="internal">
        <lane id=":8100655950_5_0" index="0" allow="pedestrian delivery bicycle" speed="3.65" length="3.23" shape="321.50,540.37 321.47,541.26 320.74,541.78 319.31,541.92"/>
    </edge>
    <edge id=":8100655951_0" function="internal">
        <lane id=":8100655951_0_0" index="0" allow="pedestrian delivery bicycle" speed="5.56" length="5.51" shape="285.93,616.07 281.19,613.27"/>
    </edge>
    <edge id=":8100655951_1" function="internal">
        <lane id=":8100655951_1_0" index="0" allow="pedestrian delivery bicycle" speed="3.65" length="1.44" shape="285.93,616.07 285.28,614.79"/>
    </edge>
    <edge id=":8100655951_4" function="internal">
        <lane id=":8100655951_4_0" index="0" allow="pedestrian delivery bicycle" speed="3.65" length="3.23" shape="285.28,614.79 285.32,613.89 286.06,613.39 287.50,613.28"/>
    </edge>
    <edge id=":8100655951_2" function="internal">
        <lane id=":8100655951_2_0" index="0" allow="pedestrian delivery bicycle" speed="5.56" length="5.37" shape="282.87,610.55 287.50,613.28"/>
    </edge>
    <edge id=":8100655951_3" function="internal">
        <lane id=":8100655951_3_0" index="0" allow="pedestrian delivery bicycle" speed="3.65" length="1.44" shape="282.87,610.55 283.47,611.86"/>
    </edge>
    <edge id=":8100655951_5" function="internal">
        <lane id=":8100655951_5_0" index="0" allow="pedestrian delivery bicycle" speed="3.65" length="3.23" shape="283.47,611.86 283.39,612.75 282.63,613.22 281.19,613.27"/>
    </edge>
    <edge id=":8100655952_0" function="internal">
        <lane id=":8100655952_0_0" index="0" allow="pedestrian delivery bicycle" speed="5.56" length="9.41" shape="338.01,543.95 333.59,552.26"/>
    </edge>
    <edge id=":8100655952_1" function="internal">
        <lane id=":8100655952_1_0" index="0" allow="pedestrian delivery bicycle" speed="5.56" length="10.19" shape="338.01,543.95 336.41,546.10 334.44,547.26 332.08,547.43 329.34,546.61"/>
    </edge>
    <edge id=":8100655952_2" function="internal">
        <lane id=":8100655952_2_0" index="0" allow="pedestrian delivery bicycle" speed="3.65" length="4.67" shape="338.01,543.95 336.74,544.63 335.85,544.61 335.33,543.88 335.18,542.45"/>
    </edge>
    <edge id=":8100655952_3" function="internal">
        <lane id=":8100655952_3_0" index="0" allow="pedestrian delivery bicycle" speed="5.27" length="5.28" shape="330.65,543.69 332.11,544.14 333.35,544.08 334.37,543.52 335.18,542.45"/>
    </edge>
    <edge id=":8100655952_4" function="internal">
        <lane id=":8100655952_4_0" index="0" allow="pedestrian delivery bicycle" speed="5.56" length="10.50" shape="330.65,543.69 333.10,545.25 334.41,547.19 334.58,549.53 333.59,552.26"/>
    </edge>
    <edge id=":8100655952_5" function="internal">
        <lane id=":8100655952_5_0" index="0" allow="pedestrian delivery bicycle" speed="3.65" length="4.67" shape="330.65,543.69 331.42,544.91 331.46,545.81 330.76,546.37 329.34,546.61"/>
    </edge>
    <edge id=":8100655952_6" function="internal">
        <lane id=":8100655952_6_0" index="0" allow="pedestrian delivery bicycle" speed="4.97" length="5.08" shape="330.77,550.76 331.24,549.44 331.16,548.31 330.53,547.37 329.34,546.61"/>
    </edge>
    <edge id=":8100655952_7" function="internal">
        <lane id=":8100655952_7_0" index="0" allow="pedestrian delivery bicycle" speed="5.56" length="9.41" shape="330.77,550.76 335.18,542.45"/>
    </edge>
    <edge id=":8100655952_8" function="internal">
        <lane id=":8100655952_8_0" index="0" allow="pedestrian delivery bicycle" speed="3.65" length="4.67" shape="330.77,550.76 332.04,550.08 332.93,550.10 333.45,550.83 333.59,552.26"/>
    </edge>
    <edge id=":8100655961_0" function="internal">
        <lane id=":8100655961_0_0" index="0" allow="pedestrian delivery bicycle" speed="5.02" length="5.02" shape="306.70,606.90 305.40,606.42 304.27,606.47 303.31,607.06 302.50,608.18"/>
    </edge>
    <edge id=":8100655961_1" function="internal">
        <lane id=":8100655961_1_0" index="0" allow="pedestrian delivery bicycle" speed="5.56" length="10.24" shape="306.70,606.90 304.44,605.22 303.28,603.23 303.20,600.92 304.21,598.30"/>
    </edge>
    <edge id=":8100655961_2" function="internal">
        <lane id=":8100655961_2_0" index="0" allow="pedestrian delivery bicycle" speed="3.65" length="4.67" shape="306.70,606.90 306.02,605.63 306.06,604.73 306.79,604.22 308.23,604.09"/>
    </edge>
    <edge id=":8100655961_3" function="internal">
        <lane id=":8100655961_3_0" index="0" allow="pedestrian delivery bicycle" speed="5.03" length="5.03" shape="307.00,599.87 306.51,601.16 306.54,602.29 307.12,603.27 308.23,604.09"/>
    </edge>
    <edge id=":8100655961_4" function="internal">
        <lane id=":8100655961_4_0" index="0" allow="pedestrian delivery bicycle" speed="5.56" length="9.45" shape="307.00,599.87 302.50,608.18"/>
    </edge>
    <edge id=":8100655961_5" function="internal">
        <lane id=":8100655961_5_0" index="0" allow="pedestrian delivery bicycle" speed="3.65" length="4.67" shape="307.00,599.87 305.72,600.53 304.82,600.48 304.32,599.74 304.21,598.30"/>
    </edge>
    <edge id=":8100655961_6" function="internal">
        <lane id=":8100655961_6_0" index="0" allow="pedestrian delivery bicycle" speed="5.56" length="9.55" shape="299.66,606.70 304.21,598.30"/>
    </edge>
    <edge id=":8100655961_7" function="internal">
        <lane id=":8100655961_7_0" index="0" allow="pedestrian delivery bicycle" speed="5.56" length="10.25" shape="299.66,606.70 301.31,604.41 303.28,603.22 305.59,603.11 308.23,604.09"/>
    </edge>
    <edge id=":8100655961_8" function="internal">
        <lane id=":8100655961_8_0" index="0" allow="pedestrian delivery bicycle" speed="3.65" length="4.67" shape="299.66,606.70 300.93,606.00 301.82,606.02 302.35,606.74 302.50,608.18"/>
    </edge>
    <edge id=":8100655962_0" function="internal">
        <lane id=":8100655962_0_0" index="0" allow="pedestrian delivery bicycle" speed="3.65" length="4.67" shape="345.56,521.77 346.78,521.00 347.67,520.96 348.24,521.66 348.48,523.08"/>
    </edge>
    <edge id=":8894112522_0" function="internal">
        <lane id=":8894112522_0_0" index="0" disallow="tram rail_urban rail rail_electric rail_fast ship container cable_car subway aircraft wheelchair scooter drone" speed="22.22" length="0.40" shape="212.07,694.95 211.89,695.30"/>
    </edge>
    <edge id=":8894112522_1" function="internal">
        <lane id=":8894112522_1_0" index="0" disallow="tram rail_urban rail rail_electric rail_fast ship container cable_car subway aircraft wheelchair scooter drone" speed="22.22" length="0.23" shape="203.46,690.71 203.53,690.58"/>
        <lane id=":8894112522_1_1" index="1" disallow="tram rail_urban rail rail_electric rail_fast ship container cable_car subway aircraft wheelchair scooter drone" speed="22.22" length="0.23" shape="206.27,692.24 206.38,692.04"/>
        <lane id=":8894112522_1_2" index="2" disallow="tram rail_urban rail rail_electric rail_fast ship container cable_car subway aircraft wheelchair scooter drone" speed="22.22" length="0.23" shape="209.08,693.77 209.22,693.49"/>
    </edge>
    <edge id=":9260384747_0" function="internal">
        <lane id=":9260384747_0_0" index="0" allow="pedestrian delivery bicycle" speed="5.56" length="5.22" shape="301.90,609.33 299.56,614.00"/>
    </edge>
    <edge id=":9260384747_1" function="internal">
        <lane id=":9260384747_1_0" index="0" allow="pedestrian delivery bicycle" speed="3.65" length="1.44" shape="301.90,609.33 300.64,610.02"/>
    </edge>
    <edge id=":9260384747_4" function="internal">
        <lane id=":9260384747_4_0" index="0" allow="pedestrian delivery bicycle" speed="3.65" length="3.23" shape="300.64,610.02 299.74,610.00 299.22,609.28 299.07,607.85"/>
    </edge>
    <edge id=":9260384747_2" function="internal">
        <lane id=":9260384747_2_0" index="0" allow="pedestrian delivery bicycle" speed="5.56" length="5.33" shape="296.68,612.61 299.07,607.85"/>
    </edge>
    <edge id=":9260384747_3" function="internal">
        <lane id=":9260384747_3_0" index="0" allow="pedestrian delivery bicycle" speed="3.65" length="1.44" shape="296.68,612.61 297.92,611.87"/>
    </edge>
    <edge id=":9260384747_5" function="internal">
        <lane id=":9260384747_5_0" index="0" allow="pedestrian delivery bicycle" speed="3.65" length="3.23" shape="297.92,611.87 298.81,611.86 299.36,612.57 299.56,614.00"/>
    </edge>
    <edge id=":9832640131_0" function="internal">
        <lane id=":9832640131_0_0" index="0" disallow="tram rail_urban rail rail_electric rail_fast ship container cable_car subway aircraft wheelchair scooter drone" speed="27.78" length="0.29" shape="269.69,599.79 269.53,600.08"/>
        <lane id=":9832640131_0_1" index="1" disallow="tram rail_urban rail rail_electric rail_fast ship container cable_car subway aircraft wheelchair scooter drone" speed="27.78" length="0.29" shape="266.88,598.27 266.74,598.52"/>
        <lane id=":9832640131_0_2" index="2" disallow="tram rail_urban rail rail_electric rail_fast ship container cable_car subway aircraft wheelchair scooter drone" speed="27.78" length="0.29" shape="264.06,596.74 263.95,596.95"/>
    </edge>
    <edge id=":9832640140_0" function="internal">
        <lane id=":9832640140_0_0" index="0" disallow="tram rail_urban rail rail_electric rail_fast ship container cable_car subway aircraft wheelchair scooter drone" speed="27.41" length="6.58" shape="238.91,616.08 239.30,613.86 239.63,612.34 240.18,610.89 241.20,608.89"/>
        <lane id=":9832640140_0_1" index="1" disallow="tram rail_urban rail rail_electric rail_fast ship container cable_car subway aircraft wheelchair scooter drone" speed="25.52" length="6.58" shape="242.06,616.65 242.39,614.72 242.67,613.40 243.14,612.15 244.02,610.42"/>
        <lane id=":9832640140_0_2" index="2" disallow="tram rail_urban rail rail_electric rail_fast ship container cable_car subway aircraft wheelchair scooter drone" speed="23.47" length="6.58" shape="245.21,617.22 245.49,615.59 245.71,614.47 246.09,613.40 246.83,611.94"/>
    </edge>
    <edge id=":9832640141_0" function="internal">
        <lane id=":9832640141_0_0" index="0" disallow="tram rail_urban rail rail_electric rail_fast ship container cable_car subway aircraft wheelchair scooter drone" speed="27.78" length="6.36" shape="259.42,618.10 258.41,619.87 257.67,621.04 256.84,622.17 255.58,623.77"/>
        <lane id=":9832640141_0_1" index="1" disallow="tram rail_urban rail rail_electric rail_fast ship container cable_car subway aircraft wheelchair scooter drone" speed="27.78" length="6.36" shape="256.63,616.54 255.69,618.17 255.00,619.26 254.23,620.30 253.07,621.79"/>
        <lane id=":9832640141_0_2" index="2" disallow="tram rail_urban rail rail_electric rail_fast ship container cable_car subway aircraft wheelchair scooter drone" speed="27.78" length="6.36" shape="253.84,614.97 252.98,616.48 252.34,617.48 251.63,618.44 250.55,619.81"/>
    </edge>

    <edge id="-655560755" from="8894112522" to="6142001572" priority="12" type="highway.primary">
        <lane id="-655560755_0" index="0" disallow="tram rail_urban rail rail_electric rail_fast ship container cable_car subway aircraft wheelchair scooter drone" speed="22.22" length="40.69" shape="211.89,695.30 192.44,731.04"/>
        <param key="ref" value="Р4"/>
    </edge>
    <edge id="-658145183#0" from="6142001571" to="275428869" priority="12" type="highway.primary">
        <lane id="-658145183#0_0" index="0" disallow="tram rail_urban rail rail_electric rail_fast ship container cable_car subway aircraft wheelchair scooter drone" speed="27.78" length="25.72" shape="204.67,619.39 227.62,631.00"/>
        <lane id="-658145183#0_1" index="1" disallow="tram rail_urban rail rail_electric rail_fast ship container cable_car subway aircraft wheelchair scooter drone" speed="27.78" length="25.72" shape="203.22,622.25 226.17,633.85"/>
        <param key="ref" value="Р2"/>
    </edge>
    <edge id="-658145183#1" from="727432334" to="6142001571" priority="12" type="highway.primary">
        <lane id="-658145183#1_0" index="0" disallow="tram rail_urban rail rail_electric rail_fast ship container cable_car subway aircraft wheelchair scooter drone" speed="27.78" length="98.43" shape="110.39,575.68 199.73,617.00"/>
        <lane id="-658145183#1_1" index="1" disallow="tram rail_urban rail rail_electric rail_fast ship container cable_car subway aircraft wheelchair scooter drone" speed="27.78" length="98.43" shape="109.05,578.58 198.39,619.90"/>
        <param key="ref" value="Р2"/>
    </edge>
    <edge id="-671804161" from="275428869" to="6290996553" priority="12" type="highway.primary">
        <lane id="-671804161_0" index="0" disallow="tram rail_urban rail rail_electric rail_fast ship container cable_car subway aircraft wheelchair scooter drone" speed="11.11" length="188.35" shape="248.56,642.07 412.77,734.31"/>
        <lane id="-671804161_1" index="1" disallow="tram rail_urban rail rail_electric rail_fast ship container cable_car subway aircraft wheelchair scooter drone" speed="11.11" length="188.35" shape="246.99,644.86 411.20,737.10"/>
        <param key="ref" value="Р2"/>
    </edge>
    <edge id="-869091353#0" from="9260384747" to="8100655961" priority="1" type="highway.service">
        <lane id="-869091353#0_0" index="0" allow="pedestrian delivery bicycle" speed="5.56" length="1.30" shape="299.07,607.85 299.66,606.70"/>
    </edge>
    <edge id="-869091353#1" from="8100655949" to="9260384747" priority="1" type="highway.service">
        <lane id="-869091353#1_0" index="0" allow="pedestrian delivery bicycle" speed="5.56" length="1.89" shape="295.86,614.31 296.68,612.61"/>
    </edge>
    <edge id="-869091354#0" from="8100655952" to="8100655962" priority="1" type="highway.service" shape="334.49,547.17 343.61,529.99 347.02,522.42">
        <lane id="-869091354#0_0" index="0" allow="pedestrian delivery bicycle" speed="5.56" length="23.15" shape="335.18,542.45 342.17,529.29 345.56,521.77"/>
    </edge>
    <edge id="-869091354#1" from="8100655961" to="8100655952" priority="1" type="highway.service" shape="303.28,603.22 329.38,556.78 334.49,547.17">