<?xml version="1.0" encoding="UTF-8"?>

<!-- generated on 2024-09-03 01:38:31 by Eclipse SUMO netconvert Version 1.20.0
<configuration xmlns:xsi="http://www.w3.org/2001/XMLSchema-instance" xsi:noNamespaceSchemaLocation="http://sumo.dlr.de/xsd/netconvertConfiguration.xsd">

    <input>
        <osm-files value="train_files/roundabout/hard/osm_files/map(71).osm"/>
    </input>

    <output>
        <output-file value="train_files/roundabout/hard/outputs/map(71)_dict/map(71)/map(71).net.xml"/>
    </output>

    <projection>
        <proj.utm value="true"/>
    </projection>

    <building_defaults>
        <default.junctions.keep-clear value="false"/>
    </building_defaults>

</configuration>
-->

<net version="1.20" junctionCornerDetail="5" limitTurnSpeed="5.50" xmlns:xsi="http://www.w3.org/2001/XMLSchema-instance" xsi:noNamespaceSchemaLocation="http://sumo.dlr.de/xsd/net_file.xsd">

    <location netOffset="-381093.80,-5400250.92" convBoundary="0.00,0.00,335.07,295.41" origBoundary="1.382570,48.743918,1.387049,48.746606" projParameter="+proj=utm +zone=31 +ellps=WGS84 +datum=WGS84 +units=m +no_defs"/>

    <type id="highway.primary" priority="12" numLanes="2" speed="27.78" disallow="tram rail_urban rail rail_electric rail_fast ship container cable_car subway aircraft wheelchair scooter drone" oneway="0"/>
    <type id="highway.primary_link" priority="7" numLanes="1" speed="22.22" disallow="tram rail_urban rail rail_electric rail_fast ship container cable_car subway aircraft wheelchair scooter drone" oneway="0"/>
    <type id="highway.secondary" priority="11" numLanes="1" speed="27.78" disallow="tram rail_urban rail rail_electric rail_fast ship container cable_car subway aircraft wheelchair scooter drone" oneway="0"/>
    <type id="highway.service" priority="1" numLanes="1" speed="5.56" allow="pedestrian delivery bicycle" oneway="0"/>
    <type id="highway.trunk" priority="13" numLanes="2" speed="27.78" disallow="pedestrian bicycle tram rail_urban rail rail_electric rail_fast ship container cable_car subway aircraft wheelchair scooter drone" oneway="0"/>
    <type id="highway.trunk_link" priority="8" numLanes="1" speed="22.22" disallow="pedestrian bicycle tram rail_urban rail rail_electric rail_fast ship container cable_car subway aircraft wheelchair scooter drone" oneway="0"/>

    <edge id=":262974536_0" function="internal">
        <lane id=":262974536_0_0" index="0" disallow="tram rail_urban rail rail_electric rail_fast ship container cable_car subway aircraft wheelchair scooter drone" speed="11.11" length="5.57" shape="245.85,234.11 245.11,232.63 244.60,231.61 243.98,230.67 242.93,229.41"/>
    </edge>
    <edge id=":262974536_1" function="internal">
        <lane id=":262974536_1_0" index="0" disallow="pedestrian bicycle tram rail_urban rail rail_electric rail_fast ship container cable_car subway aircraft wheelchair scooter drone" speed="6.04" length="5.59" shape="245.85,234.11 244.51,230.76 245.29,229.94 246.02,230.38"/>
    </edge>
    <edge id=":262974536_4" function="internal">
        <lane id=":262974536_4_0" index="0" disallow="pedestrian bicycle tram rail_urban rail rail_electric rail_fast ship container cable_car subway aircraft wheelchair scooter drone" speed="6.04" length="9.11" shape="246.02,230.38 248.20,231.66 253.24,235.90"/>
    </edge>
    <edge id=":262974536_2" function="internal">
        <lane id=":262974536_2_0" index="0" disallow="pedestrian bicycle tram rail_urban rail rail_electric rail_fast ship container cable_car subway aircraft wheelchair scooter drone" speed="11.11" length="11.72" shape="245.32,227.28 247.44,229.73 249.13,231.73 250.90,233.67 253.24,235.90"/>
    </edge>
    <edge id=":262974536_3" function="internal">
        <lane id=":262974536_3_0" index="0" disallow="tram rail_urban rail rail_electric rail_fast ship container cable_car subway aircraft wheelchair scooter drone" speed="3.65" length="1.44" shape="245.32,227.28 245.52,228.71"/>
    </edge>
    <edge id=":262974536_5" function="internal">
        <lane id=":262974536_5_0" index="0" disallow="tram rail_urban rail rail_electric rail_fast ship container cable_car subway aircraft wheelchair scooter drone" speed="3.65" length="3.23" shape="245.52,228.71 245.19,229.54 244.32,229.77 242.93,229.41"/>
    </edge>
    <edge id=":5354925580_0" function="internal">
        <lane id=":5354925580_0_0" index="0" disallow="pedestrian bicycle tram rail_urban rail rail_electric rail_fast ship container cable_car subway aircraft wheelchair scooter drone" speed="25.00" length="8.13" shape="276.89,268.77 279.14,268.02 280.55,267.13 281.95,266.21 284.18,265.37"/>
        <lane id=":5354925580_0_1" index="1" disallow="pedestrian bicycle tram rail_urban rail rail_electric rail_fast ship container cable_car subway aircraft wheelchair scooter drone" speed="25.00" length="8.13" shape="276.89,268.77 279.28,268.50 280.96,268.68 282.63,268.82 284.99,268.47"/>
    </edge>
    <edge id=":5355101228_0" function="internal">
        <lane id=":5355101228_0_0" index="0" disallow="pedestrian tram rail_urban rail rail_electric rail_fast ship container cable_car subway aircraft wheelchair scooter drone" speed="13.61" length="6.87" shape="219.46,278.31 221.43,277.94 222.69,277.36 223.85,276.51 225.50,275.31"/>
    </edge>
    <edge id=":5355101228_1" function="internal">
        <lane id=":5355101228_1_0" index="0" disallow="pedestrian bicycle tram rail_urban rail rail_electric rail_fast ship container cable_car subway aircraft wheelchair scooter drone" speed="25.00" length="7.56" shape="219.84,281.49 221.99,280.97 223.35,280.20 224.72,279.42 226.85,278.84"/>
    </edge>
    <edge id=":5365051234_0" function="internal">
        <lane id=":5365051234_0_0" index="0" disallow="tram rail_urban rail rail_electric rail_fast ship container cable_car subway aircraft wheelchair scooter drone" speed="3.65" length="4.67" shape="-1.01,1.24 -1.44,-0.13 -1.24,-1.01 -0.43,-1.38 1.01,-1.24"/>
    </edge>
    <edge id=":6547818161_0" function="internal">
        <lane id=":6547818161_0_0" index="0" allow="pedestrian delivery bicycle" speed="3.65" length="4.67" shape="238.47,183.45 238.24,182.03 238.55,181.19 239.41,180.94 240.82,181.27"/>
    </edge>
    <edge id=":6547818162_0" function="internal">
        <lane id=":6547818162_0_0" index="0" allow="pedestrian delivery bicycle" speed="3.65" length="4.67" shape="289.68,233.78 289.91,235.21 289.60,236.05 288.74,236.30 287.34,235.96"/>
    </edge>

    <edge id="-24285862" from="5365051234" to="262974536" priority="11" type="highway.secondary" shape="0.00,0.00 36.82,29.72 51.13,42.10 72.45,60.53 88.56,74.44 114.03,96.45 219.94,201.22 241.04,224.88">
        <lane id="-24285862_0" index="0" disallow="tram rail_urban rail rail_electric rail_fast ship container cable_car subway aircraft wheelchair scooter drone" speed="13.89" length="334.94" shape="1.01,-1.24 37.84,28.49 52.18,40.89 73.50,59.32 89.61,73.23 115.11,95.28 221.11,200.12 245.32,227.28"/>
        <param key="ref" value="D 21.4"/>
    </edge>
    <edge id="-697162962" from="6547818162" to="6547818161" priority="1" type="highway.service">
        <lane id="-697162962_0" index="0" allow="pedestrian delivery bicycle" speed="5.56" length="71.73" shape="287.34,235.96 238.47,183.45"/>
    </edge>
    <edge id="195824908" from="597240540" to="2062424114" priority="12" type="highway.primary" spreadType="center" shape="335.07,266.39 298.93,275.74 236.29,288.01 199.45,292.77 166.11,295.41">
        <lane id="195824908_0" index="0" disallow="pedestrian tram rail_urban rail rail_electric rail_fast ship container cable_car subway aircraft wheelchair scooter drone" speed="25.00" length="171.76" shape="335.47,267.94 299.29,277.30 236.55,289.59 199.61,294.37 166.23,297.00"/>
        <lane id="195824908_1" index="1" disallow="pedestrian tram rail_urban rail rail_electric rail_fast ship container cable_car subway aircraft wheelchair scooter drone" speed="25.00" length="171.76" shape="334.67,264.84 298.58,274.18 236.04,286.43 199.28,291.18 165.98,293.81"/>
        <param key="ref" value="N 12"/>
    </edge>
    <edge id="195824912" from="5355101228" to="5354925580" priority="13" type="highway.trunk" spreadType="center" shape="218.40,280.05 238.07,277.24 256.15,273.30 280.76,267.92">
        <lane id="195824912_0" index="0" disallow="pedestrian bicycle tram rail_urban rail rail_electric rail_fast ship container cable_car subway aircraft wheelchair scooter drone" speed="25.00" length="51.07" shape="226.85,278.84 238.07,277.24 256.15,273.30 276.89,268.77"/>
        <param key="ref" value="N 12"/>
    </edge>
    <edge id="24285861" from="262974536" to="262974539" priority="8" type="highway.trunk_link" spreadType="center" shape="241.04,224.88 268.20,249.43 272.04,252.45 275.11,254.40 278.26,255.75 281.90,256.81 286.36,257.44 291.63,257.52 299.26,256.91 313.61,255.97 326.55,255.91">
        <lane id="24285861_0" index="0" disallow="pedestrian bicycle tram rail_urban rail rail_electric rail_fast ship container cable_car subway aircraft wheelchair scooter drone" speed="8.33" length="58.17" shape="253.24,235.90 268.20,249.43 272.04,252.45 275.11,254.40 278.26,255.75 281.90,256.81 286.36,257.44 291.63,257.52 299.26,256.91 304.08,256.59"/>
        <param key="ref" value="D 21.4"/>
    </edge>
    <edge id="24285862" from="262974536" to="5365051234" priority="11" type="highway.secondary" shape="241.04,224.88 219.94,201.22 114.03,96.45 88.56,74.44 72.45,60.53 51.13,42.10 36.82,29.72 0.00,0.00">
        <lane id="24285862_0" index="0" disallow="tram rail_urban rail rail_electric rail_fast ship container cable_car subway aircraft wheelchair scooter drone" speed="13.89" length="334.42" shape="242.93,229.41 218.78,202.32 112.94,97.63 87.52,75.65 71.41,61.74 50.09,43.31 35.79,30.95 -1.01,1.24"/>
        <param key="ref" value="D 21.4"/>
    </edge>
    <edge id="554927800" from="5354925580" to="262974539" priority="13" type="highway.trunk" spreadType="center">
        <lane id="554927800_0" index="0" disallow="pedestrian bicycle tram rail_urban rail rail_electric rail_fast ship container cable_car subway aircraft wheelchair scooter drone" speed="25.00" length="21.05" shape="284.18,265.37 304.54,260.03"/>
        <lane id="554927800_1" index="1" disallow="pedestrian bicycle tram rail_urban rail rail_electric rail_fast ship container cable_car subway aircraft wheelchair scooter drone" speed="25.00" length="21.05" shape="284.99,268.47 305.35,263.12"/>
        <param key="ref" value="N 12"/>
    </edge>
    <edge id="554949466" from="5355101228" to="262974536" priority="7" type="highway.primary_link" spreadType="center" shape="218.40,280.05 227.57,273.93 234.74,269.33 239.11,266.82 241.89,265.14 244.01,263.27 245.87,261.19 248.03,257.79 249.10,254.55 249.89,250.63 250.14,247.19 249.62,243.55 248.57,240.07 246.78,235.89 241.04,224.88">
        <lane id="554949466_0" index="0" disallow="tram rail_urban rail rail_electric rail_fast ship container cable_car subway aircraft wheelchair scooter drone" speed="8.33" length="53.66" shape="225.50,275.31 227.57,273.93 234.74,269.33 239.11,266.82 241.89,265.14 244.01,263.27 245.87,261.19 248.03,257.79 249.10,254.55 249.89,250.63 250.14,247.19 249.62,243.55 248.57,240.07 246.78,235.89 245.85,234.11"/>
        <param key="ref" value="D 21.4"/>
    </edge>
    <edge id="697162962" from="6547818161" to="6547818162" priority="1" type="highway.service">
        <lane id="697162962_0" index="0" allow="pedestrian delivery bicycle" speed="5.56" length="71.73" shape="240.82,181.27 289.68,233.78"/>
    </edge>
    <edge id="785655000" from="7343700561" to="5355101228" priority="12" type="highway.primary" spreadType="center" shape="152.52,287.16 182.01,284.37 218.40,280.05">
        <lane id="785655000_0" index="0" disallow="pedestrian tram rail_urban rail rail_electric rail_fast ship container cable_car subway aircraft wheelchair scooter drone" speed="25.00" length="67.53" shape="152.37,285.57 181.84,282.78 219.46,278.31"/>
        <lane id="785655000_1" index="1" disallow="pedestrian tram rail_urban rail rail_electric rail_fast ship container cable_car subway aircraft wheelchair scooter drone" speed="25.00" length="67.53" shape="152.67,288.76 182.18,285.96 219.84,281.49"/>
        <param key="ref" value="N 12"/>
    </edge>

    <junction id="2062424114" type="dead_end" x="166.11" y="295.41" incLanes="195824908_0 195824908_1" intLanes="" shape="166.36,298.60 165.86,292.22"/>
    <junction id="262974536" type="priority" x="241.04" y="224.88" incLanes="554949466_0 -24285862_0" intLanes=":262974536_0_0 :262974536_4_0 :262974536_2_0 :262974536_5_0" shape="244.43,234.85 247.27,233.37 247.51,233.20 248.15,233.64 249.14,234.43 250.48,235.58 252.16,237.09 254.31,234.72 252.51,233.04 251.24,231.75 250.24,230.63 249.29,229.47 248.13,228.07 246.51,226.21 241.73,230.47 242.93,231.95 243.28,232.53 243.59,233.13 243.94,233.87">
        <request index="0" response="0000" foes="1000" cont="0"/>
        <request index="1" response="0100" foes="0100" cont="1"/>
        <request index="2" response="0000" foes="0010" cont="0"/>
        <request index="3" response="0001" foes="0001" cont="1"/>
    </junction>
    <junction id="262974539" type="dead_end" x="326.55" y="255.91" incLanes="24285861_0 554927800_0 554927800_1" intLanes="" shape="304.08,254.99 304.09,258.20 304.14,258.48 305.76,264.67 319.52,260.78 327.66,257.80 330.19,255.73 327.10,254.58 318.39,254.33"/>
    <junction id="5354925580" type="priority" x="280.76" y="267.92" incLanes="195824912_0" intLanes=":5354925580_0_0 :5354925580_0_1" shape="285.40,270.01 283.77,263.82 281.05,264.96 280.18,265.57 279.30,266.17 278.17,266.73 276.55,267.20 277.23,270.33 280.25,270.09 281.33,270.23 282.41,270.36 283.70,270.34">
        <request index="0" response="00" foes="00" cont="0"/>
        <request index="1" response="00" foes="00" cont="0"/>
    </junction>
    <junction id="5355101228" type="priority" x="218.40" y="280.05" incLanes="785655000_0 785655000_1" intLanes=":5355101228_0_0 :5355101228_1_0" shape="227.08,280.43 226.63,277.26 226.39,276.64 224.61,273.98 222.13,275.84 221.43,276.23 220.53,276.51 219.28,276.73 220.03,283.08 222.69,282.31 223.56,281.79 224.43,281.25 225.52,280.78">
        <request index="0" response="00" foes="00" cont="0"/>
        <request index="1" response="00" foes="00" cont="0"/>
    </junction>
    <junction id="5365051234" type="priority" x="0.00" y="0.00" incLanes="24285862_0" intLanes=":5365051234_0_0" shape="-0.00,-0.00 -2.01,2.49 -0.00,-0.00">
        <request index="0" response="0" foes="0" cont="0"/>
    </junction>
    <junction id="597240540" type="dead_end" x="335.07" y="266.39" incLanes="" intLanes="" shape="334.27,263.30 335.88,269.49"/>
    <junction id="6547818161" type="priority" x="239.64" y="182.36" incLanes="-697162962_0" intLanes=":6547818161_0_0" shape="239.64,182.36 237.30,184.54 239.64,182.36">
        <request index="0" response="0" foes="0" cont="0"/>
    </junction>
    <junction id="6547818162" type="priority" x="288.51" y="234.87" incLanes="697162962_0" intLanes=":6547818162_0_0" shape="288.51,234.87 290.85,232.69 288.51,234.87">
        <request index="0" response="0" foes="0" cont="0"/>
    </junction>
    <junction id="7343700561" type="dead_end" x="152.52" y="287.16" incLanes="" intLanes="" shape="152.82,290.35 152.22,283.98"/>

    <junction id=":262974536_4_0" type="internal" x="246.02" y="230.38" incLanes=":262974536_1_0 -24285862_0" intLanes=":262974536_2_0"/>
    <junction id=":262974536_5_0" type="internal" x="245.52" y="228.71" incLanes=":262974536_3_0 554949466_0" intLanes=":262974536_0_0"/>

    <connection from="-24285862" to="24285861" fromLane="0" toLane="0" keepClear="0" via=":262974536_2_0" dir="s" state="M"/>
    <connection from="-24285862" to="24285862" fromLane="0" toLane="0" keepClear="0" via=":262974536_3_0" dir="t" state="m"/>
    <connection from="-697162962" to="697162962" fromLane="0" toLane="0" via=":6547818161_0_0" dir="t" state="M"/>
    <connection from="195824912" to="554927800" fromLane="0" toLane="0" via=":5354925580_0_0" dir="s" state="M"/>
    <connection from="195824912" to="554927800" fromLane="0" toLane="1" via=":5354925580_0_1" dir="s" state="M"/>
    <connection from="24285862" to="-24285862" fromLane="0" toLane="0" via=":5365051234_0_0" dir="t" state="M"/>
    <connection from="554949466" to="24285862" fromLane="0" toLane="0" keepClear="0" via=":262974536_0_0" dir="s" state="M"/>
    <connection from="554949466" to="24285861" fromLane="0" toLane="0" keepClear="0" via=":262974536_1_0" dir="l" state="m"/>
    <connection from="697162962" to="-697162962" fromLane="0" toLane="0" via=":6547818162_0_0" dir="t" state="M"/>
    <connection from="785655000" to="554949466" fromLane="0" toLane="0" via=":5355101228_0_0" dir="R" state="M"/>
    <connection from="785655000" to="195824912" fromLane="1" toLane="0" via=":5355101228_1_0" dir="s" state="M"/>

    <connection from=":262974536_0" to="24285862" fromLane="0" toLane="0" dir="s" state="M"/>
    <connection from=":262974536_1" to="24285861" fromLane="0" toLane="0" via=":262974536_4_0" dir="l" state="m"/>
    <connection from=":262974536_4" to="24285861" fromLane="0" toLane="0" dir="l" state="M"/>
    <connection from=":262974536_2" to="24285861" fromLane="0" toLane="0" dir="s" state="M"/>
    <connection from=":262974536_3" to="24285862" fromLane="0" toLane="0" via=":262974536_5_0" dir="t" state="m"/>
    <connection from=":262974536_5" to="24285862" fromLane="0" toLane="0" dir="t" state="M"/>
    <connection from=":5354925580_0" to="554927800" fromLane="0" toLane="0" dir="s" state="M"/>
    <connection from=":5354925580_0" to="554927800" fromLane="1" toLane="1" dir="s" state="M"/>
    <connection from=":5355101228_0" to="554949466" fromLane="0" toLane="0" dir="R" state="M"/>
    <connection from=":5355101228_1" to="195824912" fromLane="0" toLane="0" dir="s" state="M"/>
    <connection from=":5365051234_0" to="-24285862" fromLane="0" toLane="0" dir="t" state="M"/>
    <connection from=":6547818161_0" to="697162962" fromLane="0" toLane="0" dir="t" state="M"/>
    <connection from=":6547818162_0" to="-697162962" fromLane="0" toLane="0" dir="t" state="M"/>

</net>
