<?xml version="1.0" encoding="UTF-8"?>

<!-- generated on 2024-09-03 01:38:48.797237 by randomTrips.py UNKNOWN
<configuration>
    <net-file value="train_files/intersection/hard/outputs/map(83)_dict/map(83)/map(83).net.xml"/>
    <output-trip-file value="train_files/intersection/hard/outputs/map(83)_dict/map(83)/map(83).trips.xml"/>
    <fringe-factor value="max"/>
    <validate value="True"/>
    <period value="0.72"/>
</configuration>
-->

<!-- generated on 2024-09-03 01:38:48 by Eclipse SUMO duarouter Version 1.20.0
<configuration xmlns:xsi="http://www.w3.org/2001/XMLSchema-instance" xsi:noNamespaceSchemaLocation="http://sumo.dlr.de/xsd/duarouterConfiguration.xsd">

    <input>
        <net-file value="train_files/intersection/hard/outputs/map(83)_dict/map(83)/map(83).net.xml"/>
        <route-files value="train_files/intersection/hard/outputs/map(83)_dict/map(83)/map(83).trips.xml"/>
    </input>

    <output>
        <output-file value="train_files/intersection/hard/outputs/map(83)_dict/map(83)/map(83).trips.xml.tmp"/>
        <alternatives-output value="NUL"/>
        <write-trips value="true"/>
    </output>

    <time>
        <begin value="0"/>
        <end value="3600"/>
    </time>

    <report>
        <no-warnings value="true"/>
        <ignore-errors value="true"/>
        <no-step-log value="true"/>
    </report>

</configuration>
-->

<routes xmlns:xsi="http://www.w3.org/2001/XMLSchema-instance" xsi:noNamespaceSchemaLocation="http://sumo.dlr.de/xsd/routes_file.xsd">
    <trip id="1" depart="0.72" from="33804215" to="-33804215"/>
    <trip id="2" depart="1.44" from="344514067" to="-344514067"/>
    <trip id="4" depart="2.88" from="33804215" to="-33804215"/>
    <trip id="6" depart="4.32" from="33804215" to="-33804215"/>
    <trip id="7" depart="5.04" from="344514067" to="-344514067"/>
    <trip id="10" depart="7.20" from="344514067" to="-344514067"/>
    <trip id="11" depart="7.92" from="33804215" to="-33804215"/>
    <trip id="13" depart="9.36" from="33804215" to="-33804215"/>
    <trip id="14" depart="10.08" from="344514067" to="-344514067"/>
    <trip id="15" depart="10.80" from="344514067" to="-344514067"/>
    <trip id="16" depart="11.52" from="344514067" to="-344514067"/>
    <trip id="18" depart="12.96" from="344514067" to="-344514067"/>
    <trip id="19" depart="13.68" from="344514067" to="-344514067"/>
    <trip id="21" depart="15.12" from="33804215" to="-33804215"/>
    <trip id="22" depart="15.84" from="33804215" to="-33804215"/>
    <trip id="23" depart="16.56" from="33804215" to="-33804215"/>
    <trip id="25" depart="18.00" from="33804215" to="-33804215"/>
    <trip id="27" depart="19.44" from="344514067" to="-344514067"/>
    <trip id="29" depart="20.88" from="33804215" to="-33804215"/>
    <trip id="30" depart="21.60" from="344514067" to="-344514067"/>
    <trip id="31" depart="22.32" from="344514067" to="-344514067"/>
    <trip id="32" depart="23.04" from="344514067" to="-344514067"/>
    <trip id="33" depart="23.76" from="33804215" to="-33804215"/>
    <trip id="34" depart="24.48" from="33804215" to="-33804215"/>
    <trip id="39" depart="28.08" from="33804215" to="-33804215"/>
    <trip id="41" depart="29.52" from="344514067" to="-344514067"/>
    <trip id="42" depart="30.24" from="33804215" to="-33804215"/>
    <trip id="43" depart="30.96" from="344514067" to="-344514067"/>
    <trip id="44" depart="31.68" from="33804215" to="-33804215"/>
    <trip id="47" depart="33.84" from="33804215" to="-33804215"/>
    <trip id="48" depart="34.56" from="344514067" to="-344514067"/>
    <trip id="49" depart="35.28" from="344514067" to="-344514067"/>
    <trip id="51" depart="36.72" from="344514067" to="-344514067"/>
    <trip id="53" depart="38.16" from="33804215" to="-33804215"/>
    <trip id="57" depart="41.04" from="344514067" to="-344514067"/>
    <trip id="60" depart="43.20" from="344514067" to="-344514067"/>
    <trip id="61" depart="43.92" from="344514067" to="-344514067"/>
    <trip id="62" depart="44.64" from="33804215" to="-33804215"/>
    <trip id="64" depart="46.08" from="344514067" to="-344514067"/>
    <trip id="65" depart="46.80" from="33804215" to="-33804215"/>
    <trip id="66" depart="47.52" from="344514067" to="-344514067"/>
    <trip id="67" depart="48.24" from="33804215" to="-33804215"/>
    <trip id="72" depart="51.84" from="33804215" to="-33804215"/>
    <trip id="73" depart="52.56" from="344514067" to="-344514067"/>
    <trip id="74" depart="53.28" from="33804215" to="-33804215"/>
    <trip id="75" depart="54.00" from="344514067" to="-344514067"/>
    <trip id="77" depart="55.44" from="33804215" to="-33804215"/>
    <trip id="79" depart="56.88" from="33804215" to="-33804215"/>
    <trip id="84" depart="60.48" from="33804215" to="-33804215"/>
    <trip id="85" depart="61.20" from="344514067" to="-344514067"/>
    <trip id="88" depart="63.36" from="33804215" to="-33804215"/>
    <trip id="89" depart="64.08" from="33804215" to="-33804215"/>
    <trip id="90" depart="64.80" from="344514067" to="-344514067"/>
    <trip id="92" depart="66.24" from="33804215" to="-33804215"/>
    <trip id="94" depart="67.68" from="33804215" to="-33804215"/>
    <trip id="95" depart="68.40" from="33804215" to="-33804215"/>
    <trip id="99" depart="71.28" from="344514067" to="-344514067"/>
    <trip id="100" depart="72.00" from="344514067" to="-344514067"/>
    <trip id="102" depart="73.44" from="33804215" to="-33804215"/>
    <trip id="103" depart="74.16" from="33804215" to="-33804215"/>
    <trip id="106" depart="76.32" from="33804215" to="-33804215"/>
    <trip id="107" depart="77.04" from="344514067" to="-344514067"/>
    <trip id="108" depart="77.76" from="344514067" to="-344514067"/>
    <trip id="109" depart="78.48" from="33804215" to="-33804215"/>
    <trip id="110" depart="79.20" from="344514067" to="-344514067"/>
    <trip id="111" depart="79.92" from="344514067" to="-344514067"/>
    <trip id="113" depart="81.36" from="344514067" to="-344514067"/>
    <trip id="115" depart="82.80" from="33804215" to="-33804215"/>
    <trip id="116" depart="83.52" from="344514067" to="-344514067"/>
    <trip id="117" depart="84.24" from="33804215" to="-33804215"/>
    <trip id="119" depart="85.68" from="344514067" to="-344514067"/>
    <trip id="121" depart="87.12" from="344514067" to="-344514067"/>
    <trip id="123" depart="88.56" from="33804215" to="-33804215"/>
    <trip id="126" depart="90.72" from="33804215" to="-33804215"/>
    <trip id="127" depart="91.44" from="344514067" to="-344514067"/>
    <trip id="128" depart="92.16" from="33804215" to="-33804215"/>
    <trip id="130" depart="93.60" from="344514067" to="-344514067"/>
    <trip id="131" depart="94.32" from="33804215" to="-33804215"/>
    <trip id="132" depart="95.04" from="344514067" to="-344514067"/>
    <trip id="133" depart="95.76" from="344514067" to="-344514067"/>
    <trip id="136" depart="97.92" from="344514067" to="-344514067"/>
    <trip id="137" depart="98.64" from="33804215" to="-33804215"/>
    <trip id="144" depart="103.68" from="33804215" to="-33804215"/>
    <trip id="147" depart="105.84" from="344514067" to="-344514067"/>
    <trip id="148" depart="106.56" from="33804215" to="-33804215"/>
    <trip id="150" depart="108.00" from="344514067" to="-344514067"/>
    <trip id="151" depart="108.72" from="344514067" to="-344514067"/>
    <trip id="152" depart="109.44" from="33804215" to="-33804215"/>
    <trip id="154" depart="110.88" from="344514067" to="-344514067"/>
    <trip id="156" depart="112.32" from="33804215" to="-33804215"/>
    <trip id="157" depart="113.04" from="344514067" to="-344514067"/>
    <trip id="160" depart="115.20" from="344514067" to="-344514067"/>
    <trip id="161" depart="115.92" from="344514067" to="-344514067"/>
    <trip id="164" depart="118.08" from="344514067" to="-344514067"/>
    <trip id="167" depart="120.24" from="344514067" to="-344514067"/>
    <trip id="169" depart="121.68" from="33804215" to="-33804215"/>
    <trip id="171" depart="123.12" from="33804215" to="-33804215"/>
    <trip id="175" depart="126.00" from="344514067" to="-344514067"/>
    <trip id="179" depart="128.88" from="33804215" to="-33804215"/>
    <trip id="181" depart="130.32" from="344514067" to="-344514067"/>
    <trip id="185" depart="133.20" from="344514067" to="-344514067"/>
    <trip id="186" depart="133.92" from="344514067" to="-344514067"/>
    <trip id="187" depart="134.64" from="33804215" to="-33804215"/>
    <trip id="191" depart="137.52" from="33804215" to="-33804215"/>
    <trip id="192" depart="138.24" from="33804215" to="-33804215"/>
    <trip id="193" depart="138.96" from="33804215" to="-33804215"/>
    <trip id="194" depart="139.68" from="344514067" to="-344514067"/>
    <trip id="195" depart="140.40" from="344514067" to="-344514067"/>
    <trip id="197" depart="141.84" from="33804215" to="-33804215"/>
    <trip id="200" depart="144.00" from="33804215" to="-33804215"/>
    <trip id="205" depart="147.60" from="344514067" to="-344514067"/>
    <trip id="207" depart="149.04" from="33804215" to="-33804215"/>
    <trip id="208" depart="149.76" from="33804215" to="-33804215"/>
    <trip id="212" depart="152.64" from="33804215" to="-33804215"/>
    <trip id="214" depart="154.08" from="344514067" to="-344514067"/>
    <trip id="215" depart="154.80" from="33804215" to="-33804215"/>
    <trip id="220" depart="158.40" from="344514067" to="-344514067"/>
    <trip id="221" depart="159.12" from="344514067" to="-344514067"/>
    <trip id="222" depart="159.84" from="344514067" to="-344514067"/>
    <trip id="223" depart="160.56" from="344514067" to="-344514067"/>
    <trip id="224" depart="161.28" from="344514067" to="-344514067"/>
    <trip id="225" depart="162.00" from="344514067" to="-344514067"/>
    <trip id="226" depart="162.72" from="33804215" to="-33804215"/>
    <trip id="228" depart="164.16" from="344514067" to="-344514067"/>
    <trip id="230" depart="165.60" from="33804215" to="-33804215"/>
    <trip id="231" depart="166.32" from="33804215" to="-33804215"/>
    <trip id="236" depart="169.92" from="33804215" to="-33804215"/>
    <trip id="238" depart="171.36" from="344514067" to="-344514067"/>
    <trip id="239" depart="172.08" from="344514067" to="-344514067"/>
    <trip id="240" depart="172.80" from="33804215" to="-33804215"/>
    <trip id="242" depart="174.24" from="344514067" to="-344514067"/>
    <trip id="244" depart="175.68" from="344514067" to="-344514067"/>
    <trip id="245" depart="176.40" from="33804215" to="-33804215"/>
    <trip id="246" depart="177.12" from="33804215" to="-33804215"/>
    <trip id="248" depart="178.56" from="33804215" to="-33804215"/>
    <trip id="249" depart="179.28" from="33804215" to="-33804215"/>
    <trip id="253" depart="182.16" from="33804215" to="-33804215"/>
    <trip id="254" depart="182.88" from="33804215" to="-33804215"/>
    <trip id="255" depart="183.60" from="33804215" to="-33804215"/>
    <trip id="257" depart="185.04" from="344514067" to="-344514067"/>
    <trip id="258" depart="185.76" from="33804215" to="-33804215"/>
    <trip id="261" depart="187.92" from="344514067" to="-344514067"/>
    <trip id="262" depart="188.64" from="344514067" to="-344514067"/>
    <trip id="264" depart="190.08" from="33804215" to="-33804215"/>
    <trip id="267" depart="192.24" from="344514067" to="-344514067"/>
    <trip id="270" depart="194.40" from="344514067" to="-344514067"/>
    <trip id="271" depart="195.12" from="33804215" to="-33804215"/>
    <trip id="275" depart="198.00" from="344514067" to="-344514067"/>
    <trip id="277" depart="199.44" from="344514067" to="-344514067"/>
    <trip id="280" depart="201.60" from="33804215" to="-33804215"/>
    <trip id="282" depart="203.04" from="344514067" to="-344514067"/>
    <trip id="284" depart="204.48" from="344514067" to="-344514067"/>
    <trip id="286" depart="205.92" from="344514067" to="-344514067"/>
    <trip id="294" depart="211.68" from="33804215" to="-33804215"/>
    <trip id="302" depart="217.44" from="344514067" to="-344514067"/>
    <trip id="304" depart="218.88" from="33804215" to="-33804215"/>
    <trip id="310" depart="223.20" from="33804215" to="-33804215"/>
    <trip id="311" depart="223.92" from="33804215" to="-33804215"/>
    <trip id="312" depart="224.64" from="344514067" to="-344514067"/>
    <trip id="313" depart="225.36" from="33804215" to="-33804215"/>
    <trip id="315" depart="226.80" from="344514067" to="-344514067"/>
    <trip id="316" depart="227.52" from="33804215" to="-33804215"/>
    <trip id="317" depart="228.24" from="33804215" to="-33804215"/>
    <trip id="318" depart="228.96" from="33804215" to="-33804215"/>
    <trip id="320" depart="230.40" from="344514067" to="-344514067"/>
    <trip id="323" depart="232.56" from="344514067" to="-344514067"/>
    <trip id="324" depart="233.28" from="33804215" to="-33804215"/>
    <trip id="325" depart="234.00" from="33804215" to="-33804215"/>
    <trip id="329" depart="236.88" from="33804215" to="-33804215"/>
    <trip id="332" depart="239.04" from="344514067" to="-344514067"/>
    <trip id="337" depart="242.64" from="344514067" to="-344514067"/>
    <trip id="338" depart="243.36" from="344514067" to="-344514067"/>
    <trip id="339" depart="244.08" from="33804215" to="-33804215"/>
    <trip id="341" depart="245.52" from="33804215" to="-33804215"/>
    <trip id="342" depart="246.24" from="33804215" to="-33804215"/>
    <trip id="346" depart="249.12" from="344514067" to="-344514067"/>
    <trip id="347" depart="249.84" from="344514067" to="-344514067"/>
    <trip id="348" depart="250.56" from="344514067" to="-344514067"/>
    <trip id="350" depart="252.00" from="344514067" to="-344514067"/>
    <trip id="352" depart="253.44" from="33804215" to="-33804215"/>
    <trip id="353" depart="254.16" from="344514067" to="-344514067"/>
    <trip id="354" depart="254.88" from="33804215" to="-33804215"/>
    <trip id="355" depart="255.60" from="344514067" to="-344514067"/>
    <trip id="356" depart="256.32" from="344514067" to="-344514067"/>
    <trip id="357" depart="257.04" from="33804215" to="-33804215"/>
    <trip id="358" depart="257.76" from="33804215" to="-33804215"/>
    <trip id="359" depart="258.48" from="33804215" to="-33804215"/>
    <trip id="361" depart="259.92" from="344514067" to="-344514067"/>
    <trip id="362" depart="260.64" from="344514067" to="-344514067"/>
    <trip id="367" depart="264.24" from="344514067" to="-344514067"/>
    <trip id="368" depart="264.96" from="33804215" to="-33804215"/>
    <trip id="369" depart="265.68" from="33804215" to="-33804215"/>
    <trip id="370" depart="266.40" from="344514067" to="-344514067"/>
    <trip id="373" depart="268.56" from="344514067" to="-344514067"/>
    <trip id="374" depart="269.28" from="33804215" to="-33804215"/>
    <trip id="377" depart="271.44" from="344514067" to="-344514067"/>
    <trip id="379" depart="272.88" from="33804215" to="-33804215"/>
    <trip id="380" depart="273.60" from="344514067" to="-344514067"/>
    <trip id="382" depart="275.04" from="344514067" to="-344514067"/>
    <trip id="388" depart="279.36" from="344514067" to="-344514067"/>
    <trip id="389" depart="280.08" from="33804215" to="-33804215"/>
    <trip id="391" depart="281.52" from="344514067" to="-344514067"/>
    <trip id="395" depart="284.40" from="344514067" to="-344514067"/>
    <trip id="396" depart="285.12" from="344514067" to="-344514067"/>
    <trip id="399" depart="287.28" from="344514067" to="-344514067"/>
    <trip id="400" depart="288.00" from="33804215" to="-33804215"/>
    <trip id="401" depart="288.72" from="344514067" to="-344514067"/>
    <trip id="402" depart="289.44" from="33804215" to="-33804215"/>
    <trip id="404" depart="290.88" from="344514067" to="-344514067"/>
    <trip id="405" depart="291.60" from="33804215" to="-33804215"/>
    <trip id="409" depart="294.48" from="344514067" to="-344514067"/>
    <trip id="411" depart="295.92" from="344514067" to="-344514067"/>
    <trip id="414" depart="298.08" from="344514067" to="-344514067"/>
    <trip id="421" depart="303.12" from="344514067" to="-344514067"/>
    <trip id="422" depart="303.84" from="344514067" to="-344514067"/>
    <trip id="423" depart="304.56" from="33804215" to="-33804215"/>
    <trip id="424" depart="305.28" from="344514067" to="-344514067"/>
    <trip id="427" depart="307.44" from="344514067" to="-344514067"/>
    <trip id="431" depart="310.32" from="344514067" to="-344514067"/>
    <trip id="433" depart="311.76" from="33804215" to="-33804215"/>
    <trip id="435" depart="313.20" from="344514067" to="-344514067"/>
    <trip id="436" depart="313.92" from="33804215" to="-33804215"/>
    <trip id="437" depart="314.64" from="344514067" to="-344514067"/>
    <trip id="439" depart="316.08" from="33804215" to="-33804215"/>
    <trip id="440" depart="316.80" from="33804215" to="-33804215"/>
    <trip id="442" depart="318.24" from="344514067" to="-344514067"/>
    <trip id="443" depart="318.96" from="33804215" to="-33804215"/>
    <trip id="447" depart="321.84" from="33804215" to="-33804215"/>
    <trip id="448" depart="322.56" from="33804215" to="-33804215"/>
    <trip id="449" depart="323.28" from="344514067" to="-344514067"/>
    <trip id="451" depart="324.72" from="344514067" to="-344514067"/>
    <trip id="453" depart="326.16" from="344514067" to="-344514067"/>
    <trip id="458" depart="329.76" from="344514067" to="-344514067"/>
    <trip id="459" depart="330.48" from="344514067" to="-344514067"/>
    <trip id="460" depart="331.20" from="344514067" to="-344514067"/>
    <trip id="461" depart="331.92" from="344514067" to="-344514067"/>
    <trip id="466" depart="335.52" from="33804215" to="-33804215"/>
    <trip id="467" depart="336.24" from="344514067" to="-344514067"/>
    <trip id="468" depart="336.96" from="344514067" to="-344514067"/>
    <trip id="471" depart="339.12" from="344514067" to="-344514067"/>
    <trip id="472" depart="339.84" from="33804215" to="-33804215"/>
    <trip id="474" depart="341.28" from="344514067" to="-344514067"/>
    <trip id="475" depart="342.00" from="344514067" to="-344514067"/>
    <trip id="476" depart="342.72" from="344514067" to="-344514067"/>
    <trip id="480" depart="345.60" from="344514067" to="-344514067"/>
    <trip id="481" depart="346.32" from="344514067" to="-344514067"/>
    <trip id="482" depart="347.04" from="33804215" to="-33804215"/>
    <trip id="484" depart="348.48" from="344514067" to="-344514067"/>
    <trip id="485" depart="349.20" from="33804215" to="-33804215"/>
    <trip id="486" depart="349.92" from="344514067" to="-344514067"/>
    <trip id="487" depart="350.64" from="33804215" to="-33804215"/>
    <trip id="489" depart="352.08" from="33804215" to="-33804215"/>
    <trip id="491" depart="353.52" from="33804215" to="-33804215"/>
    <trip id="492" depart="354.24" from="344514067" to="-344514067"/>
    <trip id="495" depart="356.40" from="33804215" to="-33804215"/>
    <trip id="496" depart="357.12" from="33804215" to="-33804215"/>
    <trip id="498" depart="358.56" from="33804215" to="-33804215"/>
    <trip id="499" depart="359.28" from="344514067" to="-344514067"/>
    <trip id="501" depart="360.72" from="344514067" to="-344514067"/>
    <trip id="502" depart="361.44" from="33804215" to="-33804215"/>
    <trip id="503" depart="362.16" from="33804215" to="-33804215"/>
    <trip id="505" depart="363.60" from="344514067" to="-344514067"/>
    <trip id="510" depart="367.20" from="33804215" to="-33804215"/>
    <trip id="514" depart="370.08" from="33804215" to="-33804215"/>
    <trip id="515" depart="370.80" from="33804215" to="-33804215"/>
    <trip id="518" depart="372.96" from="33804215" to="-33804215"/>
    <trip id="519" depart="373.68" from="33804215" to="-33804215"/>
    <trip id="520" depart="374.40" from="344514067" to="-344514067"/>
    <trip id="522" depart="375.84" from="344514067" to="-344514067"/>
    <trip id="525" depart="378.00" from="344514067" to="-344514067"/>
    <trip id="528" depart="380.16" from="33804215" to="-33804215"/>
    <trip id="532" depart="383.04" from="33804215" to="-33804215"/>
    <trip id="533" depart="383.76" from="344514067" to="-344514067"/>
    <trip id="537" depart="386.64" from="344514067" to="-344514067"/>
    <trip id="538" depart="387.36" from="344514067" to="-344514067"/>
    <trip id="540" depart="388.80" from="33804215" to="-33804215"/>
    <trip id="541" depart="389.52" from="33804215" to="-33804215"/>
    <trip id="542" depart="390.24" from="33804215" to="-33804215"/>
    <trip id="544" depart="391.68" from="33804215" to="-33804215"/>
    <trip id="548" depart="394.56" from="344514067" to="-344514067"/>
    <trip id="549" depart="395.28" from="344514067" to="-344514067"/>
    <trip id="550" depart="396.00" from="33804215" to="-33804215"/>
    <trip id="552" depart="397.44" from="344514067" to="-344514067"/>
    <trip id="553" depart="398.16" from="344514067" to="-344514067"/>
    <trip id="559" depart="402.48" from="344514067" to="-344514067"/>
    <trip id="560" depart="403.20" from="344514067" to="-344514067"/>
    <trip id="561" depart="403.92" from="344514067" to="-344514067"/>
    <trip id="563" depart="405.36" from="344514067" to="-344514067"/>
    <trip id="564" depart="406.08" from="33804215" to="-33804215"/>
    <trip id="566" depart="407.52" from="33804215" to="-33804215"/>
    <trip id="567" depart="408.24" from="344514067" to="-344514067"/>
    <trip id="568" depart="408.96" from="33804215" to="-33804215"/>
    <trip id="571" depart="411.12" from="33804215" to="-33804215"/>
    <trip id="573" depart="412.56" from="344514067" to="-344514067"/>
    <trip id="574" depart="413.28" from="33804215" to="-33804215"/>
    <trip id="578" depart="416.16" from="33804215" to="-33804215"/>
    <trip id="580" depart="417.60" from="33804215" to="-33804215"/>
    <trip id="584" depart="420.48" from="33804215" to="-33804215"/>
    <trip id="585" depart="421.20" from="33804215" to="-33804215"/>
    <trip id="586" depart="421.92" from="33804215" to="-33804215"/>
    <trip id="588" depart="423.36" from="33804215" to="-33804215"/>
    <trip id="589" depart="424.08" from="344514067" to="-344514067"/>
    <trip id="590" depart="424.80" from="344514067" to="-344514067"/>
    <trip id="592" depart="426.24" from="33804215" to="-33804215"/>
    <trip id="593" depart="426.96" from="344514067" to="-344514067"/>
    <trip id="594" depart="427.68" from="344514067" to="-344514067"/>
    <trip id="596" depart="429.12" from="33804215" to="-33804215"/>
    <trip id="598" depart="430.56" from="344514067" to="-344514067"/>
    <trip id="601" depart="432.72" from="344514067" to="-344514067"/>
    <trip id="602" depart="433.44" from="33804215" to="-33804215"/>
    <trip id="603" depart="434.16" from="33804215" to="-33804215"/>
    <trip id="607" depart="437.04" from="344514067" to="-344514067"/>
    <trip id="609" depart="438.48" from="33804215" to="-33804215"/>
    <trip id="610" depart="439.20" from="344514067" to="-344514067"/>
    <trip id="613" depart="441.36" from="344514067" to="-344514067"/>
    <trip id="615" depart="442.80" from="344514067" to="-344514067"/>
    <trip id="616" depart="443.52" from="344514067" to="-344514067"/>
    <trip id="618" depart="444.96" from="33804215" to="-33804215"/>
    <trip id="619" depart="445.68" from="33804215" to="-33804215"/>
    <trip id="621" depart="447.12" from="33804215" to="-33804215"/>
    <trip id="624" depart="449.28" from="344514067" to="-344514067"/>
    <trip id="626" depart="450.72" from="344514067" to="-344514067"/>
    <trip id="628" depart="452.16" from="344514067" to="-344514067"/>
    <trip id="629" depart="452.88" from="33804215" to="-33804215"/>
    <trip id="630" depart="453.60" from="33804215" to="-33804215"/>
    <trip id="634" depart="456.48" from="33804215" to="-33804215"/>
    <trip id="636" depart="457.92" from="33804215" to="-33804215"/>
    <trip id="637" depart="458.64" from="33804215" to="-33804215"/>
    <trip id="639" depart="460.08" from="344514067" to="-344514067"/>
    <trip id="640" depart="460.80" from="33804215" to="-33804215"/>
    <trip id="642" depart="462.24" from="344514067" to="-344514067"/>
    <trip id="643" depart="462.96" from="344514067" to="-344514067"/>
    <trip id="645" depart="464.40" from="33804215" to="-33804215"/>
    <trip id="646" depart="465.12" from="344514067" to="-344514067"/>
    <trip id="650" depart="468.00" from="344514067" to="-344514067"/>
    <trip id="651" depart="468.72" from="344514067" to="-344514067"/>
    <trip id="652" depart="469.44" from="344514067" to="-344514067"/>
    <trip id="654" depart="470.88" from="33804215" to="-33804215"/>
    <trip id="655" depart="471.60" from="33804215" to="-33804215"/>
    <trip id="657" depart="473.04" from="33804215" to="-33804215"/>
    <trip id="660" depart="475.20" from="344514067" to="-344514067"/>
    <trip id="661" depart="475.92" from="33804215" to="-33804215"/>
    <trip id="663" depart="477.36" from="33804215" to="-33804215"/>
    <trip id="664" depart="478.08" from="344514067" to="-344514067"/>
    <trip id="666" depart="479.52" from="33804215" to="-33804215"/>
    <trip id="668" depart="480.96" from="33804215" to="-33804215"/>
    <trip id="673" depart="484.56" from="344514067" to="-344514067"/>
    <trip id="674" depart="485.28" from="33804215" to="-33804215"/>
    <trip id="676" depart="486.72" from="344514067" to="-344514067"/>
    <trip id="679" depart="488.88" from="344514067" to="-344514067"/>
    <trip id="685" depart="493.20" from="33804215" to="-33804215"/>
    <trip id="686" depart="493.92" from="33804215" to="-33804215"/>
    <trip id="689" depart="496.08" from="33804215" to="-33804215"/>
    <trip id="690" depart="496.80" from="344514067" to="-344514067"/>
    <trip id="691" depart="497.52" from="344514067" to="-344514067"/>
    <trip id="692" depart="498.24" from="33804215" to="-33804215"/>
    <trip id="693" depart="498.96" from="344514067" to="-344514067"/>
    <trip id="695" depart="500.40" from="33804215" to="-33804215"/>
    <trip id="696" depart="501.12" from="33804215" to="-33804215"/>
    <trip id="697" depart="501.84" from="344514067" to="-344514067"/>
    <trip id="698" depart="502.56" from="344514067" to="-344514067"/>
    <trip id="699" depart="503.28" from="33804215" to="-33804215"/>
    <trip id="700" depart="504.00" from="33804215" to="-33804215"/>
    <trip id="702" depart="505.44" from="33804215" to="-33804215"/>
    <trip id="703" depart="506.16" from="344514067" to="-344514067"/>
    <trip id="705" depart="507.60" from="33804215" to="-33804215"/>
    <trip id="707" depart="509.04" from="33804215" to="-33804215"/>
    <trip id="710" depart="511.20" from="344514067" to="-344514067"/>
    <trip id="711" depart="511.92" from="344514067" to="-344514067"/>
    <trip id="712" depart="512.64" from="33804215" to="-33804215"/>
    <trip id="713" depart="513.36" from="344514067" to="-344514067"/>
    <trip id="714" depart="514.08" from="33804215" to="-33804215"/>
    <trip id="716" depart="515.52" from="344514067" to="-344514067"/>
    <trip id="717" depart="516.24" from="344514067" to="-344514067"/>
    <trip id="718" depart="516.96" from="33804215" to="-33804215"/>
    <trip id="719" depart="517.68" from="344514067" to="-344514067"/>
    <trip id="722" depart="519.84" from="344514067" to="-344514067"/>
    <trip id="724" depart="521.28" from="33804215" to="-33804215"/>
    <trip id="725" depart="522.00" from="33804215" to="-33804215"/>
    <trip id="727" depart="523.44" from="344514067" to="-344514067"/>
    <trip id="732" depart="527.04" from="33804215" to="-33804215"/>
    <trip id="733" depart="527.76" from="344514067" to="-344514067"/>
    <trip id="737" depart="530.64" from="344514067" to="-344514067"/>
    <trip id="739" depart="532.08" from="344514067" to="-344514067"/>
    <trip id="744" depart="535.68" from="33804215" to="-33804215"/>
    <trip id="747" depart="537.84" from="344514067" to="-344514067"/>
    <trip id="750" depart="540.00" from="344514067" to="-344514067"/>
    <trip id="754" depart="542.88" from="33804215" to="-33804215"/>
    <trip id="755" depart="543.60" from="344514067" to="-344514067"/>
    <trip id="756" depart="544.32" from="344514067" to="-344514067"/>
    <trip id="758" depart="545.76" from="344514067" to="-344514067"/>
    <trip id="760" depart="547.20" from="33804215" to="-33804215"/>
    <trip id="763" depart="549.36" from="33804215" to="-33804215"/>
    <trip id="766" depart="551.52" from="33804215" to="-33804215"/>
    <trip id="771" depart="555.12" from="33804215" to="-33804215"/>
    <trip id="772" depart="555.84" from="344514067" to="-344514067"/>
    <trip id="773" depart="556.56" from="344514067" to="-344514067"/>
    <trip id="774" depart="557.28" from="344514067" to="-344514067"/>
    <trip id="775" depart="558.00" from="344514067" to="-344514067"/>
    <trip id="776" depart="558.72" from="33804215" to="-33804215"/>
    <trip id="780" depart="561.60" from="344514067" to="-344514067"/>
    <trip id="781" depart="562.32" from="33804215" to="-33804215"/>
    <trip id="782" depart="563.04" from="344514067" to="-344514067"/>
    <trip id="783" depart="563.76" from="344514067" to="-344514067"/>
    <trip id="785" depart="565.20" from="344514067" to="-344514067"/>
    <trip id="788" depart="567.36" from="344514067" to="-344514067"/>
    <trip id="791" depart="569.52" from="33804215" to="-33804215"/>
    <trip id="792" depart="570.24" from="33804215" to="-33804215"/>
    <trip id="795" depart="572.40" from="344514067" to="-344514067"/>
    <trip id="801" depart="576.72" from="344514067" to="-344514067"/>
    <trip id="802" depart="577.44" from="344514067" to="-344514067"/>
    <trip id="803" depart="578.16" from="344514067" to="-344514067"/>
    <trip id="804" depart="578.88" from="33804215" to="-33804215"/>
    <trip id="805" depart="579.60" from="344514067" to="-344514067"/>