<?xml version="1.0" encoding="UTF-8"?>

<!-- generated on 2024-09-03 01:38:34 by Eclipse SUMO netconvert Version 1.20.0
<configuration xmlns:xsi="http://www.w3.org/2001/XMLSchema-instance" xsi:noNamespaceSchemaLocation="http://sumo.dlr.de/xsd/netconvertConfiguration.xsd">

    <input>
        <osm-files value="train_files/roundabout/hard/osm_files/map(89).osm"/>
    </input>

    <output>
        <output-file value="train_files/roundabout/hard/outputs/map(89)_dict/map(89)/map(89).net.xml"/>
    </output>

    <projection>
        <proj.utm value="true"/>
    </projection>

    <building_defaults>
        <default.junctions.keep-clear value="false"/>
    </building_defaults>

</configuration>
-->

<net version="1.20" junctionCornerDetail="5" limitTurnSpeed="5.50" xmlns:xsi="http://www.w3.org/2001/XMLSchema-instance" xsi:noNamespaceSchemaLocation="http://sumo.dlr.de/xsd/net_file.xsd">

    <location netOffset="-407224.30,-5796629.63" convBoundary="0.00,0.00,1505.96,391.07" origBoundary="7.639062,52.312152,7.661123,52.315701" projParameter="+proj=utm +zone=32 +ellps=WGS84 +datum=WGS84 +units=m +no_defs"/>

    <type id="highway.secondary" priority="11" numLanes="1" speed="27.78" disallow="tram rail_urban rail rail_electric rail_fast ship container cable_car subway aircraft wheelchair scooter drone" oneway="0"/>
    <type id="highway.secondary_link" priority="6" numLanes="1" speed="22.22" disallow="tram rail_urban rail rail_electric rail_fast ship container cable_car subway aircraft wheelchair scooter drone" oneway="0"/>
    <type id="highway.unclassified" priority="4" numLanes="1" speed="13.89" disallow="tram rail_urban rail rail_electric rail_fast ship container cable_car subway aircraft wheelchair scooter drone" oneway="0"/>

    <edge id=":2134206321_0" function="internal">
        <lane id=":2134206321_0_0" index="0" disallow="tram rail_urban rail rail_electric rail_fast ship container cable_car subway aircraft wheelchair scooter drone" speed="27.78" length="7.29" shape="186.58,316.83 185.06,315.28 184.06,314.19 183.14,313.03 181.85,311.29"/>
    </edge>
    <edge id=":2134206321_1" function="internal">
        <lane id=":2134206321_1_0" index="0" disallow="tram rail_urban rail rail_electric rail_fast ship container cable_car subway aircraft wheelchair scooter drone" speed="27.78" length="7.18" shape="184.43,309.39 186.03,310.73 187.62,310.99 189.30,311.18 191.12,312.32"/>
        <lane id=":2134206321_1_1" index="1" disallow="tram rail_urban rail rail_electric rail_fast ship container cable_car subway aircraft wheelchair scooter drone" speed="27.78" length="7.18" shape="184.43,309.39 185.63,311.02 186.50,312.11 187.43,313.13 188.85,314.58"/>
    </edge>
    <edge id=":262205564_0" function="internal">
        <lane id=":262205564_0_0" index="0" disallow="tram rail_urban rail rail_electric rail_fast ship container cable_car subway aircraft wheelchair scooter drone" speed="3.65" length="4.67" shape="-1.38,0.81 -1.30,-0.63 -0.81,-1.38 0.08,-1.44 1.38,-0.81"/>
    </edge>
    <edge id=":262205568_0" function="internal">
        <lane id=":262205568_0_0" index="0" disallow="tram rail_urban rail rail_electric rail_fast ship container cable_car subway aircraft wheelchair scooter drone" speed="6.51" length="8.80" shape="233.77,341.61 231.37,341.64 229.53,342.41 228.24,343.95 227.52,346.24"/>
    </edge>
    <edge id=":262205568_1" function="internal">
        <lane id=":262205568_1_0" index="0" disallow="tram rail_urban rail rail_electric rail_fast ship container cable_car subway aircraft wheelchair scooter drone" speed="27.78" length="13.90" shape="233.77,341.61 230.23,341.09 226.91,340.49 223.62,339.76 220.16,338.87"/>
    </edge>
    <edge id=":262205568_2" function="internal">
        <lane id=":262205568_2_0" index="0" disallow="tram rail_urban rail rail_electric rail_fast ship container cable_car subway aircraft wheelchair scooter drone" speed="3.65" length="1.44" shape="233.77,341.61 232.69,340.66"/>
    </edge>
    <edge id=":262205568_9" function="internal">
        <lane id=":262205568_9_0" index="0" disallow="tram rail_urban rail rail_electric rail_fast ship container cable_car subway aircraft wheelchair scooter drone" speed="3.65" length="3.23" shape="232.69,340.66 232.39,339.82 232.89,339.07 234.19,338.44"/>
    </edge>
    <edge id=":262205568_3" function="internal">
        <lane id=":262205568_3_0" index="0" disallow="tram rail_urban rail rail_electric rail_fast ship container cable_car subway aircraft wheelchair scooter drone" speed="27.78" length="13.69" shape="221.86,332.70 225.85,334.26 228.62,336.00 231.09,337.52 234.19,338.44"/>
    </edge>
    <edge id=":262205568_4" function="internal">
        <lane id=":262205568_4_0" index="0" disallow="tram rail_urban rail rail_electric rail_fast ship container cable_car subway aircraft wheelchair scooter drone" speed="8.19" length="3.81" shape="221.01,335.78 224.38,337.25 224.47,337.35"/>
    </edge>
    <edge id=":262205568_5" function="internal">
        <lane id=":262205568_5_0" index="0" disallow="tram rail_urban rail rail_electric rail_fast ship container cable_car subway aircraft wheelchair scooter drone" speed="3.65" length="1.44" shape="221.01,335.78 221.95,336.87"/>
    </edge>
    <edge id=":262205568_10" function="internal">
        <lane id=":262205568_10_0" index="0" disallow="tram rail_urban rail rail_electric rail_fast ship container cable_car subway aircraft wheelchair scooter drone" speed="8.19" length="9.94" shape="224.47,337.35 226.58,339.48 227.63,342.48 227.52,346.24"/>
    </edge>
    <edge id=":262205568_11" function="internal">
        <lane id=":262205568_11_0" index="0" disallow="tram rail_urban rail rail_electric rail_fast ship container cable_car subway aircraft wheelchair scooter drone" speed="3.65" length="3.23" shape="221.95,336.87 222.13,337.75 221.53,338.41 220.16,338.87"/>
    </edge>
    <edge id=":262205568_6" function="internal">
        <lane id=":262205568_6_0" index="0" disallow="tram rail_urban rail rail_electric rail_fast ship container cable_car subway aircraft wheelchair scooter drone" speed="6.73" length="8.96" shape="224.36,345.71 224.44,343.24 223.77,341.28 222.34,339.82 220.16,338.87"/>
    </edge>
    <edge id=":262205568_7" function="internal">
        <lane id=":262205568_7_0" index="0" disallow="tram rail_urban rail rail_electric rail_fast ship container cable_car subway aircraft wheelchair scooter drone" speed="8.01" length="13.83" shape="224.36,345.71 225.50,342.11 227.52,339.70 230.42,338.48 234.19,338.44"/>
    </edge>
    <edge id=":262205568_8" function="internal">
        <lane id=":262205568_8_0" index="0" disallow="tram rail_urban rail rail_electric rail_fast ship container cable_car subway aircraft wheelchair scooter drone" speed="3.65" length="4.67" shape="224.36,345.71 225.35,344.66 226.20,344.39 226.93,344.92 227.52,346.24"/>
    </edge>
    <edge id=":262205569_0" function="internal">
        <lane id=":262205569_0_0" index="0" disallow="tram rail_urban rail rail_electric rail_fast ship container cable_car subway aircraft wheelchair scooter drone" speed="25.00" length="18.35" shape="261.70,338.78 257.91,340.64 253.92,343.47 250.06,346.56 246.65,349.18"/>
    </edge>
    <edge id=":262205569_1" function="internal">
        <lane id=":262205569_1_0" index="0" disallow="tram rail_urban rail rail_electric rail_fast ship container cable_car subway aircraft wheelchair scooter drone" speed="27.78" length="19.60" shape="261.70,338.78 257.37,339.90 252.13,340.89 246.84,341.59 242.39,341.86"/>
    </edge>
    <edge id=":262205569_2" function="internal">
        <lane id=":262205569_2_0" index="0" disallow="tram rail_urban rail rail_electric rail_fast ship container cable_car subway aircraft wheelchair scooter drone" speed="3.65" length="1.44" shape="261.70,338.78 260.31,338.38"/>
    </edge>
    <edge id=":262205569_9" function="internal">
        <lane id=":262205569_9_0" index="0" disallow="tram rail_urban rail rail_electric rail_fast ship container cable_car subway aircraft wheelchair scooter drone" speed="3.65" length="3.23" shape="260.31,338.38 259.69,337.74 259.83,336.86 260.73,335.73"/>
    </edge>
    <edge id=":262205569_3" function="internal">
        <lane id=":262205569_3_0" index="0" disallow="tram rail_urban rail rail_electric rail_fast ship container cable_car subway aircraft wheelchair scooter drone" speed="27.78" length="19.22" shape="241.79,338.65 246.19,338.42 251.35,337.76 256.47,336.83 260.73,335.73"/>
    </edge>
    <edge id=":262205569_4" function="internal">
        <lane id=":262205569_4_0" index="0" disallow="tram rail_urban rail rail_electric rail_fast ship container cable_car subway aircraft wheelchair scooter drone" speed="7.62" length="5.06" shape="241.79,338.65 246.83,339.10"/>
    </edge>
    <edge id=":262205569_5" function="internal">
        <lane id=":262205569_5_0" index="0" disallow="tram rail_urban rail rail_electric rail_fast ship container cable_car subway aircraft wheelchair scooter drone" speed="3.67" length="1.47" shape="241.79,338.65 243.14,339.23"/>
    </edge>
    <edge id=":262205569_10" function="internal">
        <lane id=":262205569_10_0" index="0" disallow="tram rail_urban rail rail_electric rail_fast ship container cable_car subway aircraft wheelchair scooter drone" speed="7.62" length="17.08" shape="246.83,339.10 249.53,339.33 252.92,341.31 251.96,344.59 246.65,349.18"/>
    </edge>
    <edge id=":262205569_11" function="internal">
        <lane id=":262205569_11_0" index="0" disallow="tram rail_urban rail rail_electric rail_fast ship container cable_car subway aircraft wheelchair scooter drone" speed="3.67" length="3.29" shape="243.14,339.23 243.69,339.96 243.44,340.83 242.39,341.86"/>
    </edge>
    <edge id=":262205569_6" function="internal">
        <lane id=":262205569_6_0" index="0" disallow="tram rail_urban rail rail_electric rail_fast ship container cable_car subway aircraft wheelchair scooter drone" speed="5.41" length="10.26" shape="244.49,346.79 246.99,344.64 247.47,343.10 245.94,342.17 242.39,341.86"/>
    </edge>
    <edge id=":262205569_7" function="internal">
        <lane id=":262205569_7_0" index="0" disallow="tram rail_urban rail rail_electric rail_fast ship container cable_car subway aircraft wheelchair scooter drone" speed="25.00" length="19.71" shape="244.49,346.79 248.08,344.06 252.36,340.75 256.76,337.69 260.73,335.73"/>
    </edge>
    <edge id=":262205569_8" function="internal">
        <lane id=":262205569_8_0" index="0" disallow="tram rail_urban rail rail_electric rail_fast ship container cable_car subway aircraft wheelchair scooter drone" speed="3.66" length="4.71" shape="244.49,346.79 245.92,346.57 246.76,346.90 247.01,347.77 246.65,349.18"/>
    </edge>
    <edge id=":274804554_0" function="internal">
        <lane id=":274804554_0_0" index="0" disallow="tram rail_urban rail rail_electric rail_fast ship container cable_car subway aircraft wheelchair scooter drone" speed="18.05" length="21.35" shape="233.08,358.59 229.31,361.48 224.83,365.38 220.57,369.51 217.48,373.09"/>
    </edge>
    <edge id=":274804554_1" function="internal">
        <lane id=":274804554_1_0" index="0" disallow="tram rail_urban rail rail_electric rail_fast ship container cable_car subway aircraft wheelchair scooter drone" speed="7.63" length="4.64" shape="233.08,358.59 229.01,360.82"/>
    </edge>
    <edge id=":274804554_2" function="internal">
        <lane id=":274804554_2_0" index="0" disallow="tram rail_urban rail rail_electric rail_fast ship container cable_car subway aircraft wheelchair scooter drone" speed="3.66" length="1.45" shape="233.08,358.59 231.64,358.79"/>
    </edge>
    <edge id=":274804554_9" function="internal">
        <lane id=":274804554_9_0" index="0" disallow="tram rail_urban rail rail_electric rail_fast ship container cable_car subway aircraft wheelchair scooter drone" speed="7.63" length="16.92" shape="229.01,360.82 226.86,362.00 223.17,361.95 222.00,358.45 223.35,351.50"/>
    </edge>
    <edge id=":274804554_10" function="internal">
        <lane id=":274804554_10_0" index="0" disallow="tram rail_urban rail rail_electric rail_fast ship container cable_car subway aircraft wheelchair scooter drone" speed="3.66" length="3.26" shape="231.64,358.79 230.80,358.45 230.56,357.58 230.93,356.18"/>
    </edge>
    <edge id=":274804554_3" function="internal">
        <lane id=":274804554_3_0" index="0" disallow="tram rail_urban rail rail_electric rail_fast ship container cable_car subway aircraft wheelchair scooter drone" speed="5.48" length="10.26" shape="226.30,352.82 225.65,356.12 226.21,357.78 227.97,357.80 230.93,356.18"/>
    </edge>
    <edge id=":274804554_4" function="internal">
        <lane id=":274804554_4_0" index="0" disallow="tram rail_urban rail rail_electric rail_fast ship container cable_car subway aircraft wheelchair scooter drone" speed="13.89" length="22.16" shape="226.30,352.82 224.72,357.43 222.44,363.23 219.89,368.89 217.48,373.09"/>
    </edge>
    <edge id=":274804554_5" function="internal">
        <lane id=":274804554_5_0" index="0" disallow="tram rail_urban rail rail_electric rail_fast ship container cable_car subway aircraft wheelchair scooter drone" speed="3.66" length="4.71" shape="226.30,352.82 225.07,353.59 224.16,353.63 223.59,352.93 223.35,351.50"/>
    </edge>
    <edge id=":274804554_6" function="internal">
        <lane id=":274804554_6_0" index="0" disallow="tram rail_urban rail rail_electric rail_fast ship container cable_car subway aircraft wheelchair scooter drone" speed="13.89" length="21.52" shape="214.88,371.23 217.24,367.10 219.67,361.63 221.83,356.03 223.35,351.50"/>
    </edge>
    <edge id=":274804554_7" function="internal">
        <lane id=":274804554_7_0" index="0" disallow="tram rail_urban rail rail_electric rail_fast ship container cable_car subway aircraft wheelchair scooter drone" speed="18.05" length="22.05" shape="214.88,371.23 218.04,367.56 222.46,363.24 227.10,359.15 230.93,356.18"/>
    </edge>
    <edge id=":274804554_8" function="internal">
        <lane id=":274804554_8_0" index="0" disallow="tram rail_urban rail rail_electric rail_fast ship container cable_car subway aircraft wheelchair scooter drone" speed="3.65" length="1.44" shape="214.88,371.23 216.23,370.72"/>
    </edge>
    <edge id=":274804554_11" function="internal">
        <lane id=":274804554_11_0" index="0" disallow="tram rail_urban rail rail_electric rail_fast ship container cable_car subway aircraft wheelchair scooter drone" speed="3.65" length="3.23" shape="216.23,370.72 217.12,370.86 217.53,371.65 217.48,373.09"/>
    </edge>
    <edge id=":5262105518_0" function="internal">
        <lane id=":5262105518_0_0" index="0" disallow="tram rail_urban rail rail_electric rail_fast ship container cable_car subway aircraft wheelchair scooter drone" speed="3.65" length="4.67" shape="201.55,392.12 200.16,392.50 199.30,392.27 198.95,391.45 199.14,390.02"/>
    </edge>
    <edge id=":598160725_0" function="internal">
        <lane id=":598160725_0_0" index="0" disallow="tram rail_urban rail rail_electric rail_fast ship container cable_car subway aircraft wheelchair scooter drone" speed="3.65" length="4.67" shape="1505.90,84.81 1507.13,85.57 1507.56,86.36 1507.19,87.17 1506.02,88.01"/>
    </edge>

    <edge id="-1194734876" from="2134206321" to="262205564" priority="11" type="highway.secondary" shape="185.27,313.23 174.83,299.08 106.85,181.42 0.00,0.00">
        <lane id="-1194734876_0" index="0" disallow="tram rail_urban rail rail_electric rail_fast ship container cable_car subway aircraft wheelchair scooter drone" speed="27.78" length="360.60" shape="181.85,311.29 173.49,299.95 105.47,182.22 -1.38,0.81"/>
        <param key="ref" value="L 501"/>
    </edge>
    <edge id="-1194734967" from="274804554" to="262205569" priority="6" type="highway.secondary_link" shape="218.72,368.63 229.11,359.37 238.86,352.67 249.46,345.26 256.73,338.67">
        <lane id="-1194734967_0" index="0" disallow="tram rail_urban rail rail_electric rail_fast ship container cable_car subway aircraft wheelchair scooter drone" speed="22.22" length="16.49" shape="230.93,356.18 237.95,351.36 244.49,346.79"/>
    </edge>
    <edge id="-355423272#0" from="262205569" to="262205568" priority="11" type="highway.secondary" shape="256.73,338.67 250.42,339.87 243.89,340.26 235.61,340.24 227.09,339.12">
        <lane id="-355423272#0_0" index="0" disallow="tram rail_urban rail rail_electric rail_fast ship container cable_car subway aircraft wheelchair scooter drone" speed="27.78" length="8.63" shape="242.39,341.86 235.50,341.84 233.77,341.61"/>
        <param key="ref" value="L 501"/>
    </edge>
    <edge id="-355423272#1" from="598160725" to="262205569" priority="11" type="highway.secondary" shape="1505.96,86.41 1432.50,89.05 1349.00,93.05 1303.83,95.21 1196.28,101.39 1180.93,102.31 1160.14,102.09 1135.25,99.64 1112.89,97.43 1037.23,86.75 982.06,79.87 859.91,64.62 833.11,67.99 752.83,89.46 682.92,109.43 677.36,111.01 554.71,145.20 541.12,149.69 509.75,165.47 476.19,190.13 429.84,222.35 414.13,233.33 361.65,270.57 279.23,329.04 268.69,334.90 256.73,338.67">
        <lane id="-355423272#1_0" index="0" disallow="tram rail_urban rail rail_electric rail_fast ship container cable_car subway aircraft wheelchair scooter drone" speed="27.78" length="1316.29" shape="1506.02,88.01 1432.57,90.65 1349.07,94.65 1303.92,96.81 1196.37,102.98 1180.97,103.91 1160.05,103.69 1135.09,101.23 1112.70,99.02 1037.02,88.34 981.87,81.45 859.91,66.23 833.42,69.56 753.26,91.01 683.36,110.97 677.79,112.55 555.18,146.73 541.73,151.17 510.59,166.83 477.12,191.43 430.75,223.66 415.06,234.64 362.57,271.88 280.08,330.39 269.32,336.38 261.70,338.78"/>
        <param key="ref" value="L 501"/>
    </edge>
    <edge id="-544343229#0" from="274804554" to="5262105518" priority="4" type="highway.unclassified" shape="218.72,368.63 213.33,376.14 200.35,391.07">
        <lane id="-544343229#0_0" index="0" disallow="tram rail_urban rail rail_electric rail_fast ship container cable_car subway aircraft wheelchair scooter drone" speed="13.89" length="24.83" shape="217.48,373.09 214.58,377.13 201.55,392.12"/>
    </edge>
    <edge id="-544343229#1" from="262205568" to="274804554" priority="4" type="highway.unclassified" shape="227.09,339.12 225.00,351.56 222.19,360.92 218.72,368.63">
        <lane id="-544343229#1_0" index="0" disallow="tram rail_urban rail rail_electric rail_fast ship container cable_car subway aircraft wheelchair scooter drone" speed="13.89" length="6.70" shape="227.52,346.24 226.56,351.93 226.30,352.82"/>
    </edge>
    <edge id="-700852591" from="262205568" to="2134206321" priority="11" type="highway.secondary" shape="227.09,339.12 212.51,335.10 204.63,331.33 198.62,326.71 185.27,313.23">
        <lane id="-700852591_0" index="0" disallow="tram rail_urban rail rail_electric rail_fast ship container cable_car subway aircraft wheelchair scooter drone" speed="27.78" length="41.02" shape="220.16,338.87 211.95,336.60 203.78,332.70 197.56,327.92 186.58,316.83"/>
        <param key="ref" value="L 501"/>
    </edge>
    <edge id="1194734876" from="262205564" to="2134206321" priority="11" type="highway.secondary" shape="0.00,0.00 106.85,181.42 174.83,299.08 185.27,313.23">
        <lane id="1194734876_0" index="0" disallow="tram rail_urban rail rail_electric rail_fast ship container cable_car subway aircraft wheelchair scooter drone" speed="27.78" length="360.27" shape="1.38,-0.81 108.24,180.61 176.17,298.20 184.43,309.39"/>
        <param key="ref" value="L 501"/>
    </edge>
    <edge id="1194734967" from="262205569" to="274804554" priority="6" type="highway.secondary_link" shape="256.73,338.67 249.46,345.26 238.86,352.67 229.11,359.37 218.72,368.63">
        <lane id="1194734967_0" index="0" disallow="tram rail_urban rail rail_electric rail_fast ship container cable_car subway aircraft wheelchair scooter drone" speed="22.22" length="16.52" shape="246.65,349.18 239.77,353.99 233.08,358.59"/>
    </edge>
    <edge id="355423272#0" from="262205568" to="262205569" priority="11" type="highway.secondary" shape="227.09,339.12 235.61,340.24 243.89,340.26 250.42,339.87 256.73,338.67">
        <lane id="355423272#0_0" index="0" disallow="tram rail_urban rail rail_electric rail_fast ship container cable_car subway aircraft wheelchair scooter drone" speed="27.78" length="7.61" shape="234.19,338.44 235.71,338.64 241.79,338.65"/>
        <param key="ref" value="L 501"/>
    </edge>
    <edge id="355423272#1" from="262205569" to="598160725" priority="11" type="highway.secondary" shape="256.73,338.67 268.69,334.90 279.23,329.04 361.65,270.57 414.13,233.33 429.84,222.35 476.19,190.13 509.75,165.47 541.12,149.69 554.71,145.20 677.36,111.01 682.92,109.43 752.83,89.46 833.11,67.99 859.91,64.62 982.06,79.87 1037.23,86.75 1112.89,97.43 1135.25,99.64 1160.14,102.09 1180.93,102.31 1196.28,101.39 1303.83,95.21 1349.00,93.05 1432.50,89.05 1505.96,86.41">
        <lane id="355423272#1_0" index="0" disallow="tram rail_urban rail rail_electric rail_fast ship container cable_car subway aircraft wheelchair scooter drone" speed="27.78" length="1317.16" shape="260.73,335.73 268.05,333.42 278.37,327.68 360.72,269.27 413.21,232.02 428.92,221.03 475.26,188.82 508.91,164.10 540.51,148.21 554.25,143.67 676.93,109.47 682.48,107.89 752.41,87.92 832.80,66.41 859.91,63.00 982.26,78.28 1037.44,85.16 1113.08,95.84 1135.41,98.05 1160.22,100.49 1180.89,100.70 1196.19,99.79 1303.75,93.61 1348.92,91.45 1432.44,87.45 1505.90,84.81"/>
        <param key="ref" value="L 501"/>
    </edge>
    <edge id="544343229#0" from="5262105518" to="274804554" priority="4" type="highway.unclassified" shape="200.35,391.07 213.33,376.14 218.72,368.63">
        <lane id="544343229#0_0" index="0" disallow="tram rail_urban rail rail_electric rail_fast ship container cable_car subway aircraft wheelchair scooter drone" speed="13.89" length="24.53" shape="199.14,390.02 212.07,375.14 214.88,371.23"/>
    </edge>
    <edge id="544343229#1" from="274804554" to="262205568" priority="4" type="highway.unclassified" shape="218.72,368.63 222.19,360.92 225.00,351.56 227.09,339.12">
        <lane id="544343229#1_0" index="0" disallow="tram rail_urban rail rail_electric rail_fast ship container cable_car subway aircraft wheelchair scooter drone" speed="13.89" length="5.88" shape="223.35,351.50 223.44,351.20 224.36,345.71"/>
    </edge>
    <edge id="700852591" from="2134206321" to="262205568" priority="11" type="highway.secondary" shape="185.27,313.23 198.62,326.71 204.63,331.33 212.51,335.10 227.09,339.12">
        <lane id="700852591_0" index="0" disallow="tram rail_urban rail rail_electric rail_fast ship container cable_car subway aircraft wheelchair scooter drone" speed="27.78" length="38.52" shape="191.12,312.32 201.80,323.10 207.15,327.21 214.20,330.58 221.86,332.70"/>
        <lane id="700852591_1" index="1" disallow="tram rail_urban rail rail_electric rail_fast ship container cable_car subway aircraft wheelchair scooter drone" speed="27.78" length="38.52" shape="188.85,314.58 199.68,325.51 205.47,329.96 213.07,333.59 221.01,335.78"/>
        <param key="ref" value="L 501"/>
    </edge>

    <junction id="2134206321" type="priority" x="185.27" y="313.23" incLanes="-700852591_0 1194734876_0" intLanes=":2134206321_0_0 :2134206321_1_0 :2134206321_1_1" shape="185.44,317.95 192.26,311.20 189.92,310.00 188.84,309.95 187.79,309.87 186.76,309.47 185.71,308.45 180.56,312.24 182.23,314.47 182.85,315.23 183.50,315.96 184.32,316.81">
        <request index="0" response="000" foes="000" cont="0"/>
        <request index="1" response="000" foes="000" cont="0"/>
        <request index="2" response="000" foes="000" cont="0"/>
    </junction>
    <junction id="262205564" type="priority" x="0.00" y="0.00" incLanes="-1194734876_0" intLanes=":262205564_0_0" shape="0.00,0.00 -2.76,1.62 0.00,0.00">
        <request index="0" response="0" foes="0" cont="0"/>
    </junction>
    <junction id="262205568" type="priority" x="227.09" y="339.12" incLanes="-355423272#0_0 700852591_0 700852591_1 544343229#1_0" intLanes=":262205568_0_0 :262205568_1_0 :262205568_9_0 :262205568_3_0 :262205568_10_0 :262205568_11_0 :262205568_6_0 :262205568_7_0 :262205568_8_0" shape="233.56,343.20 234.40,336.85 231.64,336.25 229.74,335.38 228.27,334.34 226.82,333.23 224.96,332.13 222.29,331.15 219.73,340.41 221.73,341.42 222.36,342.18 222.74,343.10 222.89,344.19 222.78,345.44 229.10,346.50 229.88,344.44 230.53,343.77 231.36,343.34 232.38,343.15">
        <request index="0" response="000000000" foes="100010000" cont="0"/>
        <request index="1" response="000000000" foes="011110000" cont="0"/>
        <request index="2" response="010001000" foes="010001000" cont="1"/>
        <request index="3" response="000000000" foes="010000100" cont="0"/>
        <request index="4" response="000000011" foes="110000011" cont="1"/>
        <request index="5" response="001000010" foes="001000010" cont="1"/>
        <request index="6" response="000000010" foes="000100010" cont="0"/>
        <request index="7" response="000011010" foes="000011110" cont="0"/>
        <request index="8" response="000010001" foes="000010001" cont="0"/>
    </junction>
    <junction id="262205569" type="priority" x="256.73" y="338.67" incLanes="-355423272#1_0 355423272#0_0 -1194734967_0" intLanes=":262205569_0_0 :262205569_1_0 :262205569_9_0 :262205569_3_0 :262205569_10_0 :262205569_11_0 :262205569_6_0 :262205569_7_0 :262205569_8_0" shape="262.18,340.31 260.25,334.21 256.38,335.41 253.47,336.22 251.04,336.71 248.56,336.96 245.54,337.05 241.49,337.05 242.69,343.46 244.44,343.70 244.74,344.00 244.68,344.41 244.23,344.94 243.40,345.59 247.73,350.37 250.73,348.06 252.82,346.11 254.51,344.44 256.31,342.98 258.70,341.63">
        <request index="0" response="000000000" foes="100010000" cont="0"/>
        <request index="1" response="000000000" foes="011110000" cont="0"/>
        <request index="2" response="010001000" foes="010001000" cont="1"/>
        <request index="3" response="000000000" foes="010000100" cont="0"/>
        <request index="4" response="000000011" foes="110000011" cont="1"/>
        <request index="5" response="001000010" foes="001000010" cont="1"/>
        <request index="6" response="000000010" foes="000100010" cont="0"/>
        <request index="7" response="000011010" foes="000011110" cont="0"/>
        <request index="8" response="000010001" foes="000010001" cont="0"/>
    </junction>
    <junction id="274804554" type="priority" x="218.72" y="368.63" incLanes="1194734967_0 -544343229#1_0 544343229#0_0" intLanes=":274804554_0_0 :274804554_9_0 :274804554_10_0 :274804554_3_0 :274804554_4_0 :274804554_5_0 :274804554_6_0 :274804554_7_0 :274804554_11_0" shape="234.15,359.79 229.86,354.97 228.20,355.79 227.73,355.70 227.51,355.29 227.52,354.55 227.77,353.48 221.88,350.83 221.09,355.30 220.32,358.61 219.39,361.25 218.09,363.75 216.22,366.59 213.58,370.29 218.78,374.03 221.44,370.43 223.56,367.87 225.52,365.94 227.69,364.23 230.44,362.31">
        <request index="0" response="000000000" foes="100010000" cont="0"/>
        <request index="1" response="011000000" foes="011110000" cont="1"/>
        <request index="2" response="010001000" foes="010001000" cont="1"/>
        <request index="3" response="010000000" foes="010000100" cont="0"/>
        <request index="4" response="010000011" foes="110000011" cont="0"/>
        <request index="5" response="001000010" foes="001000010" cont="0"/>
        <request index="6" response="000000000" foes="000100010" cont="0"/>
        <request index="7" response="000000000" foes="000011110" cont="0"/>
        <request index="8" response="000010001" foes="000010001" cont="1"/>
    </junction>
    <junction id="5262105518" type="priority" x="200.35" y="391.07" incLanes="-544343229#0_0" intLanes=":5262105518_0_0" shape="200.35,391.07 202.76,393.17 200.35,391.07">
        <request index="0" response="0" foes="0" cont="0"/>
    </junction>
    <junction id="598160725" type="priority" x="1505.96" y="86.41" incLanes="355423272#1_0" intLanes=":598160725_0_0" shape="1505.96,86.41 1505.85,83.22 1505.96,86.41">
        <request index="0" response="0" foes="0" cont="0"/>
    </junction>

    <junction id=":262205568_9_0" type="internal" x="232.69" y="340.66" incLanes=":262205568_2_0 544343229#1_0 700852591_0" intLanes=":262205568_3_0 :262205568_7_0"/>
    <junction id=":262205568_10_0" type="internal" x="224.47" y="337.35" incLanes=":262205568_4_0 -355423272#0_0" intLanes=":262205568_0_0 :262205568_1_0 :262205568_7_0 :262205568_8_0"/>
    <junction id=":262205568_11_0" type="internal" x="221.95" y="336.87" incLanes=":262205568_5_0 -355423272#0_0 544343229#1_0" intLanes=":262205568_1_0 :262205568_6_0"/>
    <junction id=":262205569_9_0" type="internal" x="260.31" y="338.38" incLanes=":262205569_2_0 -1194734967_0 355423272#0_0" intLanes=":262205569_3_0 :262205569_7_0"/>
    <junction id=":262205569_10_0" type="internal" x="246.83" y="339.10" incLanes=":262205569_4_0 -355423272#1_0" intLanes=":262205569_0_0 :262205569_1_0 :262205569_7_0 :262205569_8_0"/>
    <junction id=":262205569_11_0" type="internal" x="243.14" y="339.23" incLanes=":262205569_5_0 -1194734967_0 -355423272#1_0" intLanes=":262205569_1_0 :262205569_6_0"/>
    <junction id=":274804554_9_0" type="internal" x="229.01" y="360.82" incLanes=":274804554_1_0 544343229#0_0" intLanes=":274804554_4_0 :274804554_5_0 :274804554_6_0 :274804554_7_0"/>
    <junction id=":274804554_10_0" type="internal" x="231.64" y="358.79" incLanes=":274804554_2_0 -544343229#1_0 544343229#0_0" intLanes=":274804554_3_0 :274804554_7_0"/>
    <junction id=":274804554_11_0" type="internal" x="216.23" y="370.72" incLanes=":274804554_8_0 -544343229#1_0 1194734967_0" intLanes=":274804554_0_0 :274804554_4_0"/>

    <connection from="-1194734876" to="1194734876" fromLane="0" toLane="0" via=":262205564_0_0" dir="t" state="M"/>