<?xml version="1.0" encoding="UTF-8"?>

<!-- generated on 2024-09-03 01:37:02 by Eclipse SUMO netconvert Version 1.20.0
<configuration xmlns:xsi="http://www.w3.org/2001/XMLSchema-instance" xsi:noNamespaceSchemaLocation="http://sumo.dlr.de/xsd/netconvertConfiguration.xsd">

    <input>
        <osm-files value="train_files/roundabout/easy/osm_files/map(84).osm"/>
    </input>

    <output>
        <output-file value="train_files/roundabout/easy/outputs/map(84)_dict/map(84)/map(84).net.xml"/>
    </output>

    <projection>
        <proj.utm value="true"/>
    </projection>

    <building_defaults>
        <default.junctions.keep-clear value="false"/>
    </building_defaults>

</configuration>
-->

<net version="1.20" junctionCornerDetail="5" limitTurnSpeed="5.50" xmlns:xsi="http://www.w3.org/2001/XMLSchema-instance" xsi:noNamespaceSchemaLocation="http://sumo.dlr.de/xsd/net_file.xsd">

    <location netOffset="-412220.20,-5790520.02" convBoundary="0.00,0.00,1454.92,384.41" origBoundary="7.713867,52.258127,7.735156,52.261620" projParameter="+proj=utm +zone=32 +ellps=WGS84 +datum=WGS84 +units=m +no_defs"/>

    <type id="highway.cycleway" priority="1" numLanes="1" speed="5.56" allow="bicycle" oneway="0" width="2.00"/>
    <type id="highway.secondary" priority="11" numLanes="1" speed="27.78" disallow="tram rail_urban rail rail_electric rail_fast ship container cable_car subway aircraft wheelchair scooter drone" oneway="0"/>
    <type id="highway.service" priority="1" numLanes="1" speed="5.56" allow="pedestrian delivery bicycle" oneway="0"/>
    <type id="highway.unclassified" priority="4" numLanes="1" speed="13.89" disallow="tram rail_urban rail rail_electric rail_fast ship container cable_car subway aircraft wheelchair scooter drone" oneway="0"/>

    <edge id=":1305964156_0" function="internal">
        <lane id=":1305964156_0_0" index="0" allow="pedestrian bicycle" speed="2.89" length="2.92" width="2.00" shape="662.29,384.99 661.45,385.31 660.90,385.23 660.64,384.74 660.66,383.83"/>
    </edge>
    <edge id=":2070420454_0" function="internal">
        <lane id=":2070420454_0_0" index="0" allow="pedestrian bicycle" speed="5.56" length="4.58" width="2.00" shape="896.07,123.87 895.09,123.60 894.05,123.66 892.96,124.06 891.82,124.79"/>
    </edge>
    <edge id=":2070420454_1" function="internal">
        <lane id=":2070420454_1_0" index="0" allow="pedestrian bicycle" speed="5.56" length="6.67" width="2.00" shape="896.07,123.87 894.32,123.00 893.20,122.22 892.26,121.23 891.01,119.70"/>
    </edge>
    <edge id=":2070420454_2" function="internal">
        <lane id=":2070420454_2_0" index="0" allow="pedestrian bicycle" speed="2.89" length="2.92" width="2.00" shape="896.07,123.87 895.60,123.10 895.59,122.55 896.02,122.20 896.91,122.06"/>
    </edge>
    <edge id=":2070420454_3" function="internal">
        <lane id=":2070420454_3_0" index="0" allow="pedestrian bicycle" speed="5.56" length="5.75" width="2.00" shape="892.55,118.44 893.63,119.76 894.44,120.62 895.40,121.30 896.91,122.06"/>
    </edge>
    <edge id=":2070420454_4" function="internal">
        <lane id=":2070420454_4_0" index="0" allow="pedestrian bicycle" speed="5.56" length="7.34" width="2.00" shape="892.55,118.44 893.60,120.17 893.82,121.80 893.23,123.35 891.82,124.79"/>
    </edge>
    <edge id=":2070420454_5" function="internal">
        <lane id=":2070420454_5_0" index="0" allow="pedestrian bicycle" speed="2.89" length="2.92" width="2.00" shape="892.55,118.44 892.64,119.34 892.41,119.85 891.87,119.97 891.01,119.70"/>
    </edge>
    <edge id=":2070420454_6" function="internal">
        <lane id=":2070420454_6_0" index="0" allow="pedestrian bicycle" speed="4.40" length="4.05" width="2.00" shape="890.60,123.20 891.38,122.41 891.71,121.56 891.58,120.66 891.01,119.70"/>
    </edge>
    <edge id=":2070420454_7" function="internal">
        <lane id=":2070420454_7_0" index="0" allow="pedestrian bicycle" speed="5.56" length="6.76" width="2.00" shape="890.60,123.20 892.23,122.18 893.83,121.65 895.39,121.61 896.91,122.06"/>
    </edge>
    <edge id=":2070420454_8" function="internal">
        <lane id=":2070420454_8_0" index="0" allow="pedestrian bicycle" speed="2.89" length="2.92" width="2.00" shape="890.60,123.20 891.50,123.14 892.00,123.39 892.11,123.94 891.82,124.79"/>
    </edge>
    <edge id=":2070420482_0" function="internal">
        <lane id=":2070420482_0_0" index="0" allow="pedestrian bicycle" speed="2.89" length="2.92" width="2.00" shape="0.02,198.57 -0.74,198.08 -1.00,197.58 -0.76,197.08 -0.02,196.57"/>
    </edge>
    <edge id=":2070420498_0" function="internal">
        <lane id=":2070420498_0_0" index="0" allow="bicycle" speed="2.89" length="2.92" width="2.00" shape="11.69,220.38 10.80,220.49 10.28,220.27 10.15,219.73 10.39,218.86"/>
    </edge>
    <edge id=":2075215826_0" function="internal">
        <lane id=":2075215826_0_0" index="0" allow="pedestrian bicycle" speed="5.07" length="4.82" width="2.00" shape="887.58,130.97 886.77,130.19 885.78,129.88 884.62,130.05 883.28,130.69"/>
    </edge>
    <edge id=":2075215826_1" function="internal">
        <lane id=":2075215826_1_0" index="0" disallow="tram rail_urban rail rail_electric rail_fast ship container cable_car subway aircraft wheelchair scooter drone" speed="13.89" length="7.14" shape="887.58,130.97 883.38,125.19"/>
    </edge>
    <edge id=":2075215826_2" function="internal">
        <lane id=":2075215826_2_0" index="0" allow="pedestrian bicycle" speed="6.49" length="1.68" width="2.00" shape="887.58,130.97 886.90,129.43"/>
    </edge>
    <edge id=":2075215826_14" function="internal">
        <lane id=":2075215826_14_0" index="0" allow="pedestrian bicycle" speed="6.49" length="7.03" width="2.00" shape="886.90,129.43 886.80,129.18 886.95,127.36 888.04,125.51 890.07,123.61"/>
    </edge>
    <edge id=":2075215826_3" function="internal">
        <lane id=":2075215826_3_0" index="0" allow="pedestrian bicycle" speed="4.75" length="4.58" width="2.00" shape="891.29,125.20 890.28,126.16 889.76,127.14 889.73,128.12 890.19,129.12"/>
    </edge>
    <edge id=":2075215826_4" function="internal">
        <lane id=":2075215826_4_0" index="0" allow="pedestrian bicycle" speed="5.56" length="9.73" width="2.00" shape="891.29,125.20 888.99,126.95 887.39,128.10 885.73,129.18 883.28,130.69"/>
    </edge>
    <edge id=":2075215826_5" function="internal">
        <lane id=":2075215826_5_0" index="0" allow="pedestrian bicycle" speed="6.33" length="9.00" width="2.00" shape="891.29,125.20 888.91,126.64 886.79,127.13 884.95,126.64 883.38,125.19"/>
    </edge>
    <edge id=":2075215826_6" function="internal">
        <lane id=":2075215826_6_0" index="0" allow="pedestrian bicycle" speed="2.89" length="2.92" width="2.00" shape="891.29,125.20 890.39,125.26 889.89,125.01 889.78,124.46 890.07,123.61"/>
    </edge>
    <edge id=":2075215826_7" function="internal">
        <lane id=":2075215826_7_0" index="0" allow="pedestrian bicycle" speed="4.90" length="4.73" width="2.00" shape="885.95,123.28 886.83,124.14 887.81,124.48 888.89,124.30 890.07,123.61"/>
    </edge>
    <edge id=":2075215826_8" function="internal">
        <lane id=":2075215826_8_0" index="0" disallow="tram rail_urban rail rail_electric rail_fast ship container cable_car subway aircraft wheelchair scooter drone" speed="13.89" length="7.21" shape="885.95,123.28 890.19,129.12"/>
    </edge>
    <edge id=":2075215826_9" function="internal">
        <lane id=":2075215826_9_0" index="0" allow="pedestrian bicycle" speed="6.34" length="1.87" width="2.00" shape="885.95,123.28 886.76,124.97"/>
    </edge>
    <edge id=":2075215826_15" function="internal">
        <lane id=":2075215826_15_0" index="0" allow="pedestrian bicycle" speed="6.34" length="7.24" width="2.00" shape="886.76,124.97 886.89,125.23 886.75,127.12 885.55,128.94 883.28,130.69"/>
    </edge>
    <edge id=":2075215826_10" function="internal">
        <lane id=":2075215826_10_0" index="0" allow="pedestrian bicycle" speed="4.57" length="4.60" width="2.00" shape="882.23,128.98 883.33,128.12 883.88,127.20 883.90,126.22 883.38,125.19"/>
    </edge>
    <edge id=":2075215826_11" function="internal">
        <lane id=":2075215826_11_0" index="0" allow="pedestrian bicycle" speed="5.56" length="9.51" width="2.00" shape="882.23,128.98 884.64,127.50 886.26,126.45 887.83,125.32 890.07,123.61"/>
    </edge>
    <edge id=":2075215826_12" function="internal">
        <lane id=":2075215826_12_0" index="0" allow="pedestrian bicycle" speed="6.48" length="8.85" width="2.00" shape="882.23,128.98 884.79,127.73 886.96,127.34 888.76,127.80 890.19,129.12"/>
    </edge>
    <edge id=":2075215826_13" function="internal">
        <lane id=":2075215826_13_0" index="0" allow="pedestrian bicycle" speed="2.89" length="2.92" width="2.00" shape="882.23,128.98 883.13,129.02 883.61,129.31 883.65,129.87 883.28,130.69"/>
    </edge>
    <edge id=":2075215828_0" function="internal">
        <lane id=":2075215828_0_0" index="0" allow="pedestrian bicycle" speed="5.15" length="3.62" width="2.00" shape="919.77,130.81 919.27,130.06 918.61,129.52 917.79,129.19 916.82,129.07"/>
    </edge>
    <edge id=":2075215828_1" function="internal">
        <lane id=":2075215828_1_0" index="0" allow="pedestrian bicycle" speed="5.54" length="6.42" width="2.00" shape="919.77,130.81 919.34,129.32 919.58,127.95 920.49,126.71 922.07,125.60"/>
    </edge>
    <edge id=":2075215828_2" function="internal">
        <lane id=":2075215828_2_0" index="0" allow="pedestrian bicycle" speed="2.89" length="2.92" width="2.00" shape="919.77,130.81 919.89,129.92 920.23,129.47 920.78,129.48 921.56,129.93"/>
    </edge>
    <edge id=":2075215828_3" function="internal">
        <lane id=":2075215828_3_0" index="0" allow="pedestrian bicycle" speed="4.14" length="3.31" width="2.00" shape="923.03,127.35 922.13,127.95 921.59,128.59 921.40,129.24 921.56,129.93"/>
    </edge>
    <edge id=":2075215828_4" function="internal">
        <lane id=":2075215828_4_0" index="0" allow="pedestrian bicycle" speed="5.56" length="6.58" width="2.00" shape="923.03,127.35 921.32,128.28 920.07,128.81 918.75,129.04 916.82,129.07"/>
    </edge>
    <edge id=":2075215828_5" function="internal">
        <lane id=":2075215828_5_0" index="0" allow="pedestrian bicycle" speed="2.89" length="2.92" width="2.00" shape="923.03,127.35 922.13,127.27 921.67,126.95 921.65,126.39 922.07,125.60"/>
    </edge>
    <edge id=":2075215828_6" function="internal">
        <lane id=":2075215828_6_0" index="0" allow="pedestrian bicycle" speed="5.56" length="5.54" width="2.00" shape="916.85,127.07 918.47,127.04 919.58,126.84 920.63,126.38 922.07,125.60"/>
    </edge>
    <edge id=":2075215828_7" function="internal">
        <lane id=":2075215828_7_0" index="0" allow="pedestrian bicycle" speed="5.56" length="5.83" width="2.00" shape="916.85,127.07 918.39,127.27 919.69,127.81 920.75,128.70 921.56,129.93"/>
    </edge>
    <edge id=":2075215828_8" function="internal">
        <lane id=":2075215828_8_0" index="0" allow="pedestrian bicycle" speed="2.89" length="2.92" width="2.00" shape="916.85,127.07 917.59,127.58 917.83,128.08 917.57,128.58 916.82,129.07"/>
    </edge>
    <edge id=":2075215830_0" function="internal">
        <lane id=":2075215830_0_0" index="0" allow="bicycle" speed="5.56" length="6.37" width="2.00" shape="878.42,135.85 877.76,134.08 877.24,132.89 876.60,131.77 875.59,130.17"/>
    </edge>
    <edge id=":2075215830_1" function="internal">
        <lane id=":2075215830_1_0" index="0" allow="pedestrian bicycle" speed="5.56" length="7.00" width="2.00" shape="878.42,135.85 878.06,134.08 878.33,132.50 879.22,131.11 880.73,129.90"/>
    </edge>
    <edge id=":2075215830_2" function="internal">
        <lane id=":2075215830_2_0" index="0" allow="pedestrian bicycle" speed="2.89" length="2.92" width="2.00" shape="878.42,135.85 878.63,134.97 879.02,134.57 879.57,134.63 880.30,135.17"/>
    </edge>
    <edge id=":2075215830_3" function="internal">
        <lane id=":2075215830_3_0" index="0" allow="pedestrian bicycle" speed="4.87" length="4.23" width="2.00" shape="881.78,131.61 880.84,132.35 880.28,133.19 880.10,134.13 880.30,135.17"/>
    </edge>
    <edge id=":2075215830_4" function="internal">
        <lane id=":2075215830_4_0" index="0" allow="bicycle" speed="5.56" length="7.21" width="2.00" shape="881.78,131.61 879.97,132.39 878.33,132.41 876.87,131.67 875.59,130.17"/>
    </edge>
    <edge id=":2075215830_5" function="internal">
        <lane id=":2075215830_5_0" index="0" allow="pedestrian bicycle" speed="2.89" length="2.92" width="2.00" shape="881.78,131.61 880.88,131.57 880.40,131.28 880.35,130.72 880.73,129.90"/>
    </edge>
    <edge id=":2075215830_6" function="internal">
        <lane id=":2075215830_6_0" index="0" allow="bicycle" speed="4.46" length="4.02" width="2.00" shape="877.28,129.10 878.00,129.93 878.81,130.35 879.72,130.34 880.73,129.90"/>
    </edge>
    <edge id=":2075215830_7" function="internal">
        <lane id=":2075215830_7_0" index="0" allow="bicycle" speed="5.56" length="6.80" width="2.00" shape="877.28,129.10 878.36,130.81 879.04,132.01 879.60,133.28 880.30,135.17"/>
    </edge>
    <edge id=":2075215830_8" function="internal">
        <lane id=":2075215830_8_0" index="0" allow="bicycle" speed="2.89" length="2.92" width="2.00" shape="877.28,129.10 877.26,130.00 876.97,130.48 876.42,130.53 875.59,130.17"/>
    </edge>
    <edge id=":2075215832_0" function="internal">
        <lane id=":2075215832_0_0" index="0" allow="pedestrian bicycle" speed="4.68" length="4.56" width="2.00" shape="926.15,141.42 925.27,140.36 924.34,139.79 923.37,139.72 922.34,140.15"/>
    </edge>
    <edge id=":2075215832_1" function="internal">
        <lane id=":2075215832_1_0" index="0" allow="pedestrian bicycle" speed="5.56" length="6.23" width="2.00" shape="926.15,141.42 922.80,136.17"/>
    </edge>
    <edge id=":2075215832_2" function="internal">
        <lane id=":2075215832_2_0" index="0" allow="pedestrian bicycle" speed="2.89" length="2.92" width="2.00" shape="926.15,141.42 926.16,140.52 926.44,140.04 927.00,139.98 927.83,140.33"/>
    </edge>
    <edge id=":2075215832_3" function="internal">
        <lane id=":2075215832_3_0" index="0" allow="pedestrian bicycle" speed="4.73" length="4.50" width="2.00" shape="928.44,136.49 927.54,137.21 927.14,138.09 927.24,139.13 927.83,140.33"/>
    </edge>
    <edge id=":2075215832_4" function="internal">
        <lane id=":2075215832_4_0" index="0" disallow="tram rail_urban rail rail_electric rail_fast ship container cable_car subway aircraft wheelchair scooter drone" speed="27.78" length="7.11" shape="928.44,136.49 922.34,140.15"/>
    </edge>
    <edge id=":2075215832_5" function="internal">
        <lane id=":2075215832_5_0" index="0" allow="pedestrian bicycle" speed="5.65" length="6.29" width="2.00" shape="928.44,136.49 926.57,137.31 925.01,137.53 923.75,137.15 922.80,136.17"/>
    </edge>
    <edge id=":2075215832_6" function="internal">
        <lane id=":2075215832_6_0" index="0" allow="pedestrian bicycle" speed="5.56" length="6.19" width="2.00" shape="924.50,135.11 927.83,140.33"/>
    </edge>
    <edge id=":2075215832_7" function="internal">
        <lane id=":2075215832_7_0" index="0" allow="pedestrian bicycle" speed="5.38" length="6.16" width="2.00" shape="924.50,135.11 924.97,136.40 924.77,137.67 923.89,138.92 922.34,140.15"/>
    </edge>
    <edge id=":2075215832_8" function="internal">
        <lane id=":2075215832_8_0" index="0" allow="pedestrian bicycle" speed="2.89" length="2.92" width="2.00" shape="924.50,135.11 924.47,136.02 924.18,136.49 923.62,136.55 922.80,136.17"/>
    </edge>
    <edge id=":2075215836_0" function="internal">
        <lane id=":2075215836_0_0" index="0" allow="pedestrian bicycle" speed="5.56" length="5.83" width="2.00" shape="932.42,142.67 930.93,143.51 930.01,144.26 929.29,145.23 928.42,146.72"/>
    </edge>
    <edge id=":2075215836_1" function="internal">
        <lane id=":2075215836_1_0" index="0" allow="pedestrian bicycle" speed="5.56" length="7.05" width="2.00" shape="932.42,142.67 930.50,143.39 928.82,143.43 927.39,142.81 926.21,141.51"/>
    </edge>
    <edge id=":2075215836_2" function="internal">
        <lane id=":2075215836_2_0" index="0" allow="pedestrian bicycle" speed="2.93" length="2.92" width="2.00" shape="932.42,142.67 931.52,142.68 931.03,142.41 930.95,141.86 931.29,141.02"/>
    </edge>
    <edge id=":2075215836_3" function="internal">
        <lane id=":2075215836_3_0" index="0" allow="pedestrian bicycle" speed="4.37" length="3.96" width="2.00" shape="927.88,140.42 928.59,141.22 929.39,141.59 930.29,141.52 931.29,141.02"/>
    </edge>
    <edge id=":2075215836_4" function="internal">
        <lane id=":2075215836_4_0" index="0" allow="pedestrian bicycle" speed="5.56" length="6.68" width="2.00" shape="927.88,140.42 928.75,142.09 929.12,143.70 929.01,145.24 928.42,146.72"/>
    </edge>
    <edge id=":2075215836_5" function="internal">
        <lane id=":2075215836_5_0" index="0" allow="pedestrian bicycle" speed="2.89" length="2.92" width="2.00" shape="927.88,140.42 927.87,141.32 927.59,141.80 927.03,141.87 926.21,141.51"/>
    </edge>
    <edge id=":2075215836_6" function="internal">
        <lane id=":2075215836_6_0" index="0" allow="pedestrian bicycle" speed="5.56" length="4.46" width="2.00" shape="926.69,145.71 927.06,144.77 927.10,143.75 926.82,142.66 926.21,141.51"/>
    </edge>
    <edge id=":2075215836_7" function="internal">
        <lane id=":2075215836_7_0" index="0" allow="pedestrian bicycle" speed="5.56" length="6.67" width="2.00" shape="926.69,145.71 927.72,144.04 928.59,143.00 929.66,142.14 931.29,141.02"/>
    </edge>
    <edge id=":2075215836_8" function="internal">
        <lane id=":2075215836_8_0" index="0" allow="pedestrian bicycle" speed="2.89" length="2.92" width="2.00" shape="926.69,145.71 927.50,145.32 928.05,145.35 928.36,145.82 928.42,146.72"/>
    </edge>
    <edge id=":2075215842_0" function="internal">
        <lane id=":2075215842_0_0" index="0" allow="bicycle" speed="4.21" length="3.86" width="2.00" shape="877.94,155.53 877.34,154.72 876.60,154.35 875.72,154.41 874.69,154.91"/>
    </edge>
    <edge id=":2075215842_1" function="internal">
        <lane id=":2075215842_1_0" index="0" allow="pedestrian bicycle" speed="5.56" length="6.40" width="2.00" shape="877.94,155.53 877.23,153.84 876.90,152.25 876.94,150.76 877.36,149.37"/>
    </edge>
    <edge id=":2075215842_2" function="internal">
        <lane id=":2075215842_2_0" index="0" allow="pedestrian bicycle" speed="2.89" length="2.92" width="2.00" shape="877.94,155.53 878.04,154.64 878.37,154.19 878.93,154.18 879.72,154.62"/>
    </edge>
    <edge id=":2075215842_3" function="internal">
        <lane id=":2075215842_3_0" index="0" allow="pedestrian bicycle" speed="5.56" length="4.60" width="2.00" shape="879.18,150.19 878.91,151.15 878.91,152.20 879.18,153.36 879.72,154.62"/>
    </edge>
    <edge id=":2075215842_4" function="internal">
        <lane id=":2075215842_4_0" index="0" allow="bicycle" speed="5.56" length="6.67" width="2.00" shape="879.18,150.19 878.30,151.93 877.46,152.99 876.36,153.83 874.69,154.91"/>
    </edge>
    <edge id=":2075215842_5" function="internal">
        <lane id=":2075215842_5_0" index="0" allow="pedestrian bicycle" speed="2.89" length="2.92" width="2.00" shape="879.18,150.19 878.42,150.67 877.86,150.69 877.51,150.26 877.36,149.37"/>
    </edge>
    <edge id=":2075215842_6" function="internal">
        <lane id=":2075215842_6_0" index="0" allow="bicycle" speed="5.56" length="5.52" width="2.00" shape="873.60,153.23 874.98,152.35 875.91,151.67 876.62,150.80 877.36,149.37"/>
    </edge>
    <edge id=":2075215842_7" function="internal">
        <lane id=":2075215842_7_0" index="0" allow="bicycle" speed="5.56" length="7.33" width="2.00" shape="873.60,153.23 875.50,152.33 877.15,152.25 878.55,153.02 879.72,154.62"/>
    </edge>
    <edge id=":2075215842_8" function="internal">
        <lane id=":2075215842_8_0" index="0" allow="bicycle" speed="2.89" length="2.92" width="2.00" shape="873.60,153.23 874.50,153.24 874.98,153.52 875.05,154.08 874.69,154.91"/>
    </edge>
    <edge id=":2075215845_0" function="internal">
        <lane id=":2075215845_0_0" index="0" allow="pedestrian bicycle" speed="5.15" length="4.99" width="2.00" shape="917.53,170.34 916.72,169.60 915.70,169.34 914.47,169.56 913.05,170.27"/>
    </edge>
    <edge id=":2075215845_1" function="internal">
        <lane id=":2075215845_1_0" index="0" disallow="tram rail_urban rail rail_electric rail_fast ship container cable_car subway aircraft wheelchair scooter drone" speed="13.89" length="6.90" shape="917.53,170.34 916.33,168.69 915.46,167.58 914.54,166.53 913.16,165.02"/>
    </edge>
    <edge id=":2075215845_2" function="internal">
        <lane id=":2075215845_2_0" index="0" allow="pedestrian bicycle" speed="6.47" length="1.64" width="2.00" shape="917.53,170.34 916.86,168.85"/>
    </edge>
    <edge id=":2075215845_14" function="internal">
        <lane id=":2075215845_14_0" index="0" allow="pedestrian bicycle" speed="6.47" length="6.91" width="2.00" shape="916.86,168.85 916.74,168.60 916.87,166.80 917.90,164.95 919.84,163.05"/>
    </edge>
    <edge id=":2075215845_3" function="internal">
        <lane id=":2075215845_3_0" index="0" allow="pedestrian bicycle" speed="4.73" length="4.48" width="2.00" shape="921.10,164.61 920.14,165.57 919.67,166.53 919.66,167.50 920.13,168.48"/>
    </edge>
    <edge id=":2075215845_4" function="internal">
        <lane id=":2075215845_4_0" index="0" allow="pedestrian bicycle" speed="5.56" length="9.85" width="2.00" shape="921.10,164.61 918.81,166.43 917.20,167.62 915.53,168.72 913.05,170.27"/>
    </edge>
    <edge id=":2075215845_5" function="internal">
        <lane id=":2075215845_5_0" index="0" allow="pedestrian bicycle" speed="6.49" length="8.89" width="2.00" shape="921.10,164.61 918.81,166.08 916.72,166.63 914.84,166.28 913.16,165.02"/>
    </edge>
    <edge id=":2075215845_6" function="internal">
        <lane id=":2075215845_6_0" index="0" allow="pedestrian bicycle" speed="2.89" length="2.92" width="2.00" shape="921.10,164.61 920.20,164.69 919.69,164.46 919.57,163.91 919.84,163.05"/>
    </edge>
    <edge id=":2075215845_7" function="internal">
        <lane id=":2075215845_7_0" index="0" allow="pedestrian bicycle" speed="5.10" length="4.87" width="2.00" shape="915.51,162.85 916.51,163.66 917.57,163.96 918.68,163.76 919.84,163.05"/>
    </edge>
    <edge id=":2075215845_8" function="internal">
        <lane id=":2075215845_8_0" index="0" disallow="tram rail_urban rail rail_electric rail_fast ship container cable_car subway aircraft wheelchair scooter drone" speed="13.89" length="7.29" shape="915.51,162.85 916.97,164.44 917.95,165.56 918.86,166.73 920.13,168.48"/>
    </edge>
    <edge id=":2075215845_9" function="internal">
        <lane id=":2075215845_9_0" index="0" allow="pedestrian bicycle" speed="6.19" length="2.02" width="2.00" shape="915.51,162.85 916.56,164.58"/>
    </edge>
    <edge id=":2075215845_15" function="internal">
        <lane id=":2075215845_15_0" index="0" allow="pedestrian bicycle" speed="6.19" length="7.23" width="2.00" shape="916.56,164.58 916.65,164.72 916.62,166.58 915.42,168.43 913.05,170.27"/>
    </edge>
    <edge id=":2075215845_10" function="internal">
        <lane id=":2075215845_10_0" index="0" allow="pedestrian bicycle" speed="4.36" length="4.42" width="2.00" shape="911.99,168.57 913.12,167.69 913.69,166.81 913.71,165.92 913.16,165.02"/>
    </edge>
    <edge id=":2075215845_11" function="internal">
        <lane id=":2075215845_11_0" index="0" allow="pedestrian bicycle" speed="5.56" length="9.61" width="2.00" shape="911.99,168.57 914.41,167.06 916.04,165.99 917.61,164.83 919.84,163.05"/>
    </edge>
    <edge id=":2075215845_12" function="internal">
        <lane id=":2075215845_12_0" index="0" allow="pedestrian bicycle" speed="6.54" length="9.03" width="2.00" shape="911.99,168.57 914.63,167.24 916.86,166.79 918.70,167.20 920.13,168.48"/>
    </edge>
    <edge id=":2075215845_13" function="internal">
        <lane id=":2075215845_13_0" index="0" allow="pedestrian bicycle" speed="2.89" length="2.92" width="2.00" shape="911.99,168.57 912.89,168.60 913.37,168.89 913.42,169.45 913.05,170.27"/>
    </edge>
    <edge id=":2075215848_0" function="internal">
        <lane id=":2075215848_0_0" index="0" allow="pedestrian bicycle" speed="5.56" length="5.81" width="2.00" shape="909.48,175.74 908.45,174.36 907.67,173.45 906.74,172.72 905.25,171.88"/>
    </edge>
    <edge id=":2075215848_1" function="internal">
        <lane id=":2075215848_1_0" index="0" allow="pedestrian bicycle" speed="5.56" length="7.52" width="2.00" shape="909.48,175.74 908.47,173.91 908.33,172.24 909.06,170.74 910.66,169.40"/>
    </edge>
    <edge id=":2075215848_2" function="internal">
        <lane id=":2075215848_2_0" index="0" allow="pedestrian bicycle" speed="2.89" length="2.92" width="2.00" shape="909.48,175.74 909.42,174.84 909.67,174.34 910.22,174.24 911.07,174.54"/>
    </edge>
    <edge id=":2075215848_3" function="internal">
        <lane id=":2075215848_3_0" index="0" allow="pedestrian bicycle" speed="4.33" length="4.08" width="2.00" shape="911.71,171.10 910.85,171.82 910.45,172.64 910.52,173.54 911.07,174.54"/>
    </edge>
    <edge id=":2075215848_4" function="internal">
        <lane id=":2075215848_4_0" index="0" allow="pedestrian bicycle" speed="5.56" length="6.81" width="2.00" shape="911.71,171.10 909.95,171.99 908.29,172.42 906.72,172.38 905.25,171.88"/>
    </edge>
    <edge id=":2075215848_5" function="internal">
        <lane id=":2075215848_5_0" index="0" allow="pedestrian bicycle" speed="2.89" length="2.92" width="2.00" shape="911.71,171.10 910.81,171.07 910.34,170.77 910.28,170.22 910.66,169.40"/>
    </edge>
    <edge id=":2075215848_6" function="internal">
        <lane id=":2075215848_6_0" index="0" allow="pedestrian bicycle" speed="5.56" length="4.75" width="2.00" shape="906.16,170.10 907.13,170.41 908.21,170.40 909.38,170.06 910.66,169.40"/>
    </edge>
    <edge id=":2075215848_7" function="internal">
        <lane id=":2075215848_7_0" index="0" allow="pedestrian bicycle" speed="5.56" length="6.72" width="2.00" shape="906.16,170.10 907.89,171.06 908.97,171.90 909.88,172.94 911.07,174.54"/>
    </edge>
    <edge id=":2075215848_8" function="internal">
        <lane id=":2075215848_8_0" index="0" allow="pedestrian bicycle" speed="2.89" length="2.92" width="2.00" shape="906.16,170.10 906.60,170.89 906.60,171.45 906.15,171.78 905.25,171.88"/>
    </edge>
    <edge id=":2075220089_0" function="internal">
        <lane id=":2075220089_0_0" index="0" disallow="tram rail_urban rail rail_electric rail_fast ship container cable_car subway aircraft wheelchair scooter drone" speed="7.34" length="6.68" shape="919.83,141.77 918.56,142.83 917.66,144.14 917.12,145.69 916.95,147.48"/>
    </edge>
    <edge id=":2075220089_1" function="internal">
        <lane id=":2075220089_1_0" index="0" disallow="tram rail_urban rail rail_electric rail_fast ship container cable_car subway aircraft wheelchair scooter drone" speed="11.63" length="6.80" shape="915.50,141.00 916.46,142.73 916.87,144.05 916.96,145.46 916.95,147.48"/>
    </edge>
    <edge id=":2076162968_0" function="internal">
        <lane id=":2076162968_0_0" index="0" allow="pedestrian bicycle" speed="5.56" length="5.77" width="2.00" shape="922.70,136.01 921.79,134.56 921.18,133.55 920.62,132.52 919.86,130.99"/>
    </edge>
    <edge id=":2076162968_1" function="internal">
        <lane id=":2076162968_1_0" index="0" allow="pedestrian bicycle" speed="5.32" length="6.28" width="2.00" shape="922.70,136.01 922.20,134.67 922.41,133.39 923.34,132.16 924.98,130.99"/>
    </edge>
    <edge id=":2076162968_2" function="internal">
        <lane id=":2076162968_2_0" index="0" allow="pedestrian bicycle" speed="2.89" length="2.92" width="2.00" shape="922.70,136.01 922.72,135.11 923.01,134.63 923.57,134.57 924.39,134.94"/>
    </edge>
    <edge id=":2076162968_3" function="internal">
        <lane id=":2076162968_3_0" index="0" allow="pedestrian bicycle" speed="4.33" length="3.98" width="2.00" shape="921.65,130.11 922.26,130.98 923.02,131.42 923.92,131.42 924.98,130.99"/>
    </edge>
    <edge id=":2076162968_4" function="internal">
        <lane id=":2076162968_4_0" index="0" allow="pedestrian bicycle" speed="5.56" length="5.56" width="2.00" shape="921.65,130.11 922.39,131.59 922.93,132.58 923.51,133.55 924.39,134.94"/>
    </edge>
    <edge id=":2076162968_5" function="internal">
        <lane id=":2076162968_5_0" index="0" allow="pedestrian bicycle" speed="2.89" length="2.92" width="2.00" shape="921.65,130.11 921.53,131.00 921.20,131.45 920.64,131.45 919.86,130.99"/>
    </edge>
    <edge id=":2076162968_6" function="internal">
        <lane id=":2076162968_6_0" index="0" allow="pedestrian bicycle" speed="4.41" length="3.94" width="2.00" shape="918.32,133.97 919.38,133.46 919.99,132.79 920.15,131.97 919.86,130.99"/>
    </edge>
    <edge id=":2076162968_7" function="internal">
        <lane id=":2076162968_7_0" index="0" disallow="tram rail_urban rail rail_electric rail_fast ship container cable_car subway aircraft wheelchair scooter drone" speed="27.78" length="7.32" shape="918.32,133.97 920.37,133.27 921.76,132.72 923.09,132.06 924.98,130.99"/>
    </edge>
    <edge id=":2076162968_8" function="internal">
        <lane id=":2076162968_8_0" index="0" allow="pedestrian bicycle" speed="6.19" length="6.64" width="2.00" shape="918.32,133.97 920.39,133.46 922.09,133.45 923.42,133.95 924.39,134.94"/>
    </edge>
    <edge id=":2076162970_0" function="internal">
        <lane id=":2076162970_0_0" index="0" disallow="tram rail_urban rail rail_electric rail_fast ship container cable_car subway aircraft wheelchair scooter drone" speed="25.76" length="17.05" shape="943.61,120.37 946.96,118.08 950.32,115.16 953.43,111.96 956.04,108.83"/>
    </edge>