<?xml version="1.0" encoding="UTF-8"?>

<!-- generated on 2024-09-03 01:38:16 by Eclipse SUMO netconvert Version 1.20.0
<configuration xmlns:xsi="http://www.w3.org/2001/XMLSchema-instance" xsi:noNamespaceSchemaLocation="http://sumo.dlr.de/xsd/netconvertConfiguration.xsd">

    <input>
        <osm-files value="train_files/roundabout/hard/osm_files/map(25).osm"/>
    </input>

    <output>
        <output-file value="train_files/roundabout/hard/outputs/map(25)_dict/map(25)/map(25).net.xml"/>
    </output>

    <projection>
        <proj.utm value="true"/>
    </projection>

    <building_defaults>
        <default.junctions.keep-clear value="false"/>
    </building_defaults>

</configuration>
-->

<net version="1.20" junctionCornerDetail="5" limitTurnSpeed="5.50" xmlns:xsi="http://www.w3.org/2001/XMLSchema-instance" xsi:noNamespaceSchemaLocation="http://sumo.dlr.de/xsd/net_file.xsd">

    <location netOffset="-465486.15,-5388270.34" convBoundary="0.00,0.00,2180.91,3914.04" origBoundary="2.531109,48.646656,2.561042,48.681749" projParameter="+proj=utm +zone=31 +ellps=WGS84 +datum=WGS84 +units=m +no_defs"/>

    <type id="highway.footway" priority="1" numLanes="1" speed="2.78" allow="pedestrian" oneway="1" width="2.00"/>
    <type id="highway.pedestrian" priority="1" numLanes="1" speed="2.78" allow="pedestrian" oneway="1" width="2.00"/>
    <type id="highway.residential" priority="3" numLanes="1" speed="13.89" disallow="tram rail_urban rail rail_electric rail_fast ship container cable_car subway aircraft wheelchair scooter drone" oneway="0"/>
    <type id="highway.secondary" priority="11" numLanes="1" speed="27.78" disallow="tram rail_urban rail rail_electric rail_fast ship container cable_car subway aircraft wheelchair scooter drone" oneway="0"/>
    <type id="highway.service" priority="1" numLanes="1" speed="5.56" allow="pedestrian delivery bicycle" oneway="0"/>
    <type id="railway.rail" priority="20" numLanes="1" speed="44.44" allow="rail" oneway="1"/>

    <edge id=":1278105493_0" function="internal">
        <lane id=":1278105493_0_0" index="0" allow="pedestrian delivery bicycle" speed="3.65" length="4.67" shape="1231.94,2134.25 1231.53,2135.63 1230.88,2136.25 1230.00,2136.11 1228.88,2135.20"/>
    </edge>
    <edge id=":1345673201_0" function="internal">
        <lane id=":1345673201_0_0" index="0" allow="rail rail_electric rail_fast" speed="36.11" length="2.99" shape="1052.16,2627.88 1050.78,2630.53"/>
    </edge>
    <edge id=":1345678158_0" function="internal">
        <lane id=":1345678158_0_0" index="0" allow="rail rail_electric rail_fast" speed="36.11" length="2.90" shape="1306.44,2132.47 1305.17,2135.07"/>
    </edge>
    <edge id=":1345678166_0" function="internal">
        <lane id=":1345678166_0_0" index="0" allow="rail rail_electric rail_fast" speed="44.44" length="40.65" shape="1278.11,2200.96 1293.27,2163.25"/>
    </edge>
    <edge id=":1345678166_1" function="internal">
        <lane id=":1345678166_1_0" index="0" allow="rail rail_electric rail_fast" speed="44.44" length="29.75" shape="1278.11,2200.96 1291.19,2174.24"/>
    </edge>
    <edge id=":1345678171_0" function="internal">
        <lane id=":1345678171_0_0" index="0" allow="rail rail_electric rail_fast" speed="40.28" length="57.69" shape="1291.28,2174.06 1317.33,2122.58"/>
    </edge>
    <edge id=":1345678171_1" function="internal">
        <lane id=":1345678171_1_0" index="0" allow="rail rail_electric rail_fast" speed="36.11" length="68.54" shape="1289.49,2185.21 1317.33,2122.58"/>
    </edge>
    <edge id=":1345678199_0" function="internal">
        <lane id=":1345678199_0_0" index="0" disallow="tram rail_urban rail rail_electric rail_fast ship container cable_car subway aircraft wheelchair scooter drone" speed="27.78" length="4.07" shape="1272.88,2116.21 1271.70,2116.47 1270.89,2116.66 1270.10,2116.90 1268.96,2117.30"/>
    </edge>
    <edge id=":1345678201_0" function="internal">
        <lane id=":1345678201_0_0" index="0" disallow="tram rail_urban rail rail_electric rail_fast ship container cable_car subway aircraft wheelchair scooter drone" speed="12.93" length="5.77" shape="1282.88,2116.17 1281.36,2115.51 1280.20,2115.38 1278.99,2115.48 1277.27,2115.52"/>
    </edge>
    <edge id=":1345678201_1" function="internal">
        <lane id=":1345678201_1_0" index="0" disallow="tram rail_urban rail rail_electric rail_fast ship container cable_car subway aircraft wheelchair scooter drone" speed="8.29" length="5.42" shape="1282.88,2116.17 1281.56,2115.33 1280.82,2114.52 1280.34,2113.48 1279.81,2111.96"/>
    </edge>
    <edge id=":1470831097_0" function="internal">
        <lane id=":1470831097_0_0" index="0" disallow="tram rail_urban rail rail_electric rail_fast ship container cable_car subway aircraft wheelchair scooter drone" speed="7.99" length="8.32" shape="1286.88,2123.23 1286.57,2120.93 1285.83,2119.00 1284.66,2117.45 1283.06,2116.27"/>
    </edge>
    <edge id=":1470831097_1" function="internal">
        <lane id=":1470831097_1_0" index="0" disallow="tram rail_urban rail rail_electric rail_fast ship container cable_car subway aircraft wheelchair scooter drone" speed="5.66" length="6.34" shape="1292.42,2117.84 1291.32,2118.25 1290.57,2119.27 1290.15,2120.89 1290.08,2123.12"/>
    </edge>
    <edge id=":1470831097_2" function="internal">
        <lane id=":1470831097_2_0" index="0" disallow="tram rail_urban rail rail_electric rail_fast ship container cable_car subway aircraft wheelchair scooter drone" speed="12.97" length="9.74" shape="1292.42,2117.84 1289.55,2118.09 1287.53,2118.06 1285.61,2117.53 1283.06,2116.27"/>
    </edge>
    <edge id=":1470831099_0" function="internal">
        <lane id=":1470831099_0_0" index="0" disallow="tram rail_urban rail rail_electric rail_fast ship container cable_car subway aircraft wheelchair scooter drone" speed="3.65" length="4.67" shape="1249.41,2216.62 1248.19,2217.40 1247.30,2217.44 1246.73,2216.75 1246.48,2215.33"/>
    </edge>
    <edge id=":1470845264_0" function="internal">
        <lane id=":1470845264_0_0" index="0" allow="pedestrian delivery bicycle" speed="3.65" length="4.67" shape="1323.87,2058.75 1325.13,2058.06 1326.03,2058.08 1326.55,2058.80 1326.70,2060.24"/>
    </edge>
    <edge id=":1827370424_0" function="internal">
        <lane id=":1827370424_0_0" index="0" disallow="tram rail_urban rail rail_electric rail_fast ship container cable_car subway aircraft wheelchair scooter drone" speed="9.33" length="5.41" shape="1279.74,2111.77 1279.27,2110.26 1279.15,2109.17 1279.32,2108.06 1279.75,2106.52"/>
    </edge>
    <edge id=":1827370424_1" function="internal">
        <lane id=":1827370424_1_0" index="0" disallow="tram rail_urban rail rail_electric rail_fast ship container cable_car subway aircraft wheelchair scooter drone" speed="7.32" length="5.50" shape="1275.44,2109.73 1277.17,2108.88 1278.46,2108.07 1279.33,2107.28 1279.75,2106.52"/>
    </edge>
    <edge id=":317476128_0" function="internal">
        <lane id=":317476128_0_0" index="0" disallow="tram rail_urban rail rail_electric rail_fast ship container cable_car subway aircraft wheelchair scooter drone" speed="27.78" length="4.76" shape="1297.08,2116.22 1295.74,2116.69 1294.87,2117.16 1293.99,2117.56 1292.62,2117.82"/>
    </edge>
    <edge id=":317476128_1" function="internal">
        <lane id=":317476128_1_0" index="0" disallow="tram rail_urban rail rail_electric rail_fast ship container cable_car subway aircraft wheelchair scooter drone" speed="7.41" length="7.83" shape="1296.94,2111.57 1295.79,2114.24 1294.68,2116.17 1293.63,2117.36 1292.62,2117.82"/>
    </edge>
    <edge id=":317476129_0" function="internal">
        <lane id=":317476129_0_0" index="0" disallow="tram rail_urban rail rail_electric rail_fast ship container cable_car subway aircraft wheelchair scooter drone" speed="9.83" length="7.68" shape="1304.56,2115.29 1302.55,2114.59 1301.03,2114.77 1299.45,2115.43 1297.27,2116.18"/>
    </edge>
    <edge id=":317476214_0" function="internal">
        <lane id=":317476214_0_0" index="0" disallow="tram rail_urban rail rail_electric rail_fast ship container cable_car subway aircraft wheelchair scooter drone" speed="27.78" length="7.15" shape="1305.13,2106.73 1307.13,2107.37 1308.63,2107.47 1310.10,2107.59 1312.07,2108.32"/>
        <lane id=":317476214_0_1" index="1" disallow="tram rail_urban rail rail_electric rail_fast ship container cable_car subway aircraft wheelchair scooter drone" speed="27.78" length="7.15" shape="1305.13,2106.73 1306.90,2107.81 1307.90,2108.89 1308.88,2110.00 1310.61,2111.17"/>
    </edge>
    <edge id=":317476217_0" function="internal">
        <lane id=":317476217_0_0" index="0" allow="pedestrian delivery bicycle" speed="4.67" length="4.33" shape="1304.39,2102.90 1303.87,2104.20 1303.79,2105.26 1304.15,2106.07 1304.94,2106.65"/>
    </edge>
    <edge id=":317476217_1" function="internal">
        <lane id=":317476217_1_0" index="0" allow="pedestrian delivery bicycle" speed="3.65" length="4.67" shape="1304.39,2102.90 1303.13,2103.60 1302.24,2103.58 1301.71,2102.86 1301.56,2101.42"/>
    </edge>
    <edge id=":317476217_2" function="internal">
        <lane id=":317476217_2_0" index="0" allow="pedestrian delivery bicycle" speed="4.89" length="4.12" shape="1298.78,2104.15 1299.38,2104.13 1300.05,2103.66 1300.77,2102.76 1301.56,2101.42"/>
    </edge>
    <edge id=":317476217_3" function="internal">
        <lane id=":317476217_3_0" index="0" disallow="tram rail_urban rail rail_electric rail_fast ship container cable_car subway aircraft wheelchair scooter drone" speed="27.78" length="6.65" shape="1298.78,2104.15 1300.64,2104.81 1301.90,2105.30 1303.14,2105.84 1304.94,2106.65"/>
    </edge>
    <edge id=":317476326_0" function="internal">
        <lane id=":317476326_0_0" index="0" disallow="tram rail_urban rail rail_electric rail_fast ship container cable_car subway aircraft wheelchair scooter drone" speed="12.07" length="5.98" shape="1279.81,2106.33 1280.11,2104.64 1279.93,2103.45 1279.48,2102.25 1278.98,2100.54"/>
    </edge>
    <edge id=":317476326_1" function="internal">
        <lane id=":317476326_1_0" index="0" disallow="tram rail_urban rail rail_electric rail_fast ship container cable_car subway aircraft wheelchair scooter drone" speed="10.13" length="6.06" shape="1279.81,2106.33 1280.39,2104.66 1281.05,2103.63 1281.99,2102.77 1283.39,2101.64"/>
    </edge>
    <edge id=":317476328_0" function="internal">
        <lane id=":317476328_0_0" index="0" disallow="tram rail_urban rail rail_electric rail_fast ship container cable_car subway aircraft wheelchair scooter drone" speed="13.38" length="6.72" shape="1286.97,2096.30 1288.16,2097.91 1288.99,2099.05 1289.99,2099.96 1291.71,2100.88"/>
    </edge>
    <edge id=":317476328_1" function="internal">
        <lane id=":317476328_1_0" index="0" disallow="tram rail_urban rail rail_electric rail_fast ship container cable_car subway aircraft wheelchair scooter drone" speed="8.81" length="7.21" shape="1284.70,2101.00 1286.57,2100.42 1288.37,2100.20 1290.08,2100.36 1291.71,2100.88"/>
    </edge>
    <edge id=":317476329_0" function="internal">
        <lane id=":317476329_0_0" index="0" disallow="tram rail_urban rail rail_electric rail_fast ship container cable_car subway aircraft wheelchair scooter drone" speed="25.85" length="5.98" shape="1293.19,2101.63 1294.64,2102.63 1295.73,2103.16 1296.90,2103.54 1298.59,2104.08"/>
    </edge>
    <edge id=":317476329_1" function="internal">
        <lane id=":317476329_1_0" index="0" disallow="tram rail_urban rail rail_electric rail_fast ship container cable_car subway aircraft wheelchair scooter drone" speed="8.16" length="7.86" shape="1293.19,2101.63 1295.02,2103.21 1296.31,2104.81 1297.06,2106.41 1297.27,2108.01"/>
    </edge>
    <edge id=":317476504_0" function="internal">
        <lane id=":317476504_0_0" index="0" disallow="tram rail_urban rail rail_electric rail_fast ship container cable_car subway aircraft wheelchair scooter drone" speed="27.78" length="5.12" shape="1266.67,2113.82 1271.27,2111.57"/>
    </edge>
    <edge id=":4878857989_0" function="internal">
        <lane id=":4878857989_0_0" index="0" disallow="tram rail_urban rail rail_electric rail_fast ship container cable_car subway aircraft wheelchair scooter drone" speed="27.78" length="4.50" shape="1268.77,2117.37 1267.52,2117.83 1266.68,2118.18 1265.85,2118.58 1264.65,2119.17"/>
    </edge>
    <edge id=":4878857992_0" function="internal">
        <lane id=":4878857992_0_0" index="0" disallow="tram rail_urban rail rail_electric rail_fast ship container cable_car subway aircraft wheelchair scooter drone" speed="13.89" length="5.10" shape="1281.45,2089.27 1282.29,2090.53 1282.92,2091.35 1283.59,2092.14 1284.55,2093.31"/>
    </edge>
    <edge id=":4878857993_0" function="internal">
        <lane id=":4878857993_0_0" index="0" disallow="tram rail_urban rail rail_electric rail_fast ship container cable_car subway aircraft wheelchair scooter drone" speed="13.89" length="5.02" shape="1277.99,2096.04 1276.92,2091.14"/>
    </edge>
    <edge id=":493923355_0" function="internal">
        <lane id=":493923355_0_0" index="0" disallow="tram rail_urban rail rail_electric rail_fast ship container cable_car subway aircraft wheelchair scooter drone" speed="13.89" length="7.38" shape="1276.16,2087.70 1275.50,2085.63 1274.73,2084.33 1273.94,2083.02 1273.19,2080.98"/>
    </edge>
    <edge id=":493923355_1" function="internal">
        <lane id=":493923355_1_0" index="0" disallow="tram rail_urban rail rail_electric rail_fast ship container cable_car subway aircraft wheelchair scooter drone" speed="13.89" length="7.00" shape="1276.29,2080.17 1276.91,2082.13 1277.56,2083.39 1278.38,2084.57 1279.56,2086.29"/>
    </edge>
    <edge id=":9084096851_0" function="internal">
        <lane id=":9084096851_0_0" index="0" allow="pedestrian delivery bicycle" speed="4.89" length="5.20" shape="1262.63,2077.02 1262.01,2075.70 1261.14,2074.97 1260.01,2074.82 1258.62,2075.26"/>
    </edge>
    <edge id=":9084096851_1" function="internal">
        <lane id=":9084096851_1_0" index="0" allow="pedestrian delivery bicycle" speed="5.56" length="7.90" shape="1262.63,2077.02 1261.95,2074.19 1261.81,2072.03 1262.22,2070.54 1263.18,2069.70"/>
    </edge>
    <edge id=":9084096851_2" function="internal">
        <lane id=":9084096851_2_0" index="0" allow="pedestrian delivery bicycle" speed="5.56" length="6.33" shape="1264.39,2072.67 1258.62,2075.26"/>
    </edge>
    <edge id=":9084096851_3" function="internal">
        <lane id=":9084096851_3_0" index="0" allow="pedestrian delivery bicycle" speed="3.65" length="4.67" shape="1264.39,2072.67 1262.98,2072.38 1262.30,2071.79 1262.37,2070.90 1263.18,2069.70"/>
    </edge>
    <edge id=":9084096851_4" function="internal">
        <lane id=":9084096851_4_0" index="0" allow="pedestrian delivery bicycle" speed="5.56" length="6.53" shape="1257.23,2072.38 1263.18,2069.70"/>
    </edge>
    <edge id=":9084096851_5" function="internal">
        <lane id=":9084096851_5_0" index="0" allow="pedestrian delivery bicycle" speed="3.65" length="4.67" shape="1257.23,2072.38 1258.65,2072.58 1259.36,2073.12 1259.35,2074.02 1258.62,2075.26"/>
    </edge>
    <edge id=":9084096852_0" function="internal">
        <lane id=":9084096852_0_0" index="0" allow="pedestrian delivery bicycle" speed="3.90" length="2.83" shape="1270.83,2072.00 1270.52,2071.27 1270.06,2070.85 1269.45,2070.73 1268.68,2070.92"/>
    </edge>
    <edge id=":9084096852_1" function="internal">
        <lane id=":9084096852_1_0" index="0" disallow="tram rail_urban rail rail_electric rail_fast ship container cable_car subway aircraft wheelchair scooter drone" speed="3.65" length="4.67" shape="1270.83,2072.00 1271.30,2070.64 1271.97,2070.05 1272.84,2070.23 1273.92,2071.19"/>
    </edge>
    <edge id=":9084096852_2" function="internal">
        <lane id=":9084096852_2_0" index="0" allow="pedestrian delivery bicycle" speed="6.07" length="8.49" shape="1267.47,2067.96 1269.77,2067.39 1271.62,2067.74 1273.00,2069.00 1273.92,2071.19"/>
    </edge>
    <edge id=":9084096853_0" function="internal">
        <lane id=":9084096853_0_0" index="0" allow="pedestrian delivery bicycle" speed="5.56" length="6.37" shape="1225.41,2123.98 1223.58,2117.88"/>
    </edge>
    <edge id=":9084096853_1" function="internal">
        <lane id=":9084096853_1_0" index="0" allow="pedestrian delivery bicycle" speed="5.56" length="7.92" shape="1225.41,2123.98 1225.54,2122.96 1226.46,2121.71 1228.19,2120.23 1230.72,2118.52"/>
    </edge>
    <edge id=":9084096853_2" function="internal">
        <lane id=":9084096853_2_0" index="0" allow="pedestrian delivery bicycle" speed="3.65" length="4.67" shape="1225.41,2123.98 1225.82,2122.60 1226.47,2121.98 1227.35,2122.12 1228.47,2123.03"/>
    </edge>
    <edge id=":9084096853_3" function="internal">
        <lane id=":9084096853_3_0" index="0" allow="pedestrian delivery bicycle" speed="4.80" length="5.36" shape="1226.64,2116.97 1227.28,2118.36 1228.18,2119.08 1229.32,2119.13 1230.72,2118.52"/>
    </edge>
    <edge id=":9084096853_4" function="internal">
        <lane id=":9084096853_4_0" index="0" allow="pedestrian delivery bicycle" speed="5.56" length="6.33" shape="1226.64,2116.97 1228.47,2123.03"/>
    </edge>
    <edge id=":9084096853_5" function="internal">
        <lane id=":9084096853_5_0" index="0" allow="pedestrian delivery bicycle" speed="3.65" length="4.67" shape="1226.64,2116.97 1226.22,2118.35 1225.56,2118.96 1224.68,2118.80 1223.58,2117.88"/>
    </edge>

    <edge id="-1006451106" from="493923355" to="9084096852" priority="3" type="highway.residential" shape="1273.91,2077.43 1272.06,2070.39 1271.45,2068.07">
        <lane id="-1006451106_0" index="0" disallow="tram rail_urban rail rail_electric rail_fast ship container cable_car subway aircraft wheelchair scooter drone" speed="13.89" length="9.29" shape="1273.19,2080.98 1270.83,2072.00"/>
    </edge>
    <edge id="-1006451107" from="9084096852" to="9084096851" priority="1" type="highway.service">
        <lane id="-1006451107_0" index="0" allow="pedestrian delivery bicycle" speed="5.56" length="4.63" shape="1268.68,2070.92 1264.39,2072.67"/>
    </edge>
    <edge id="-112455337#0" from="9084096853" to="1278105493" priority="1" type="highway.service">
        <lane id="-112455337#0_0" index="0" allow="pedestrian delivery bicycle" speed="5.56" length="11.74" shape="1228.47,2123.03 1231.94,2134.25"/>
    </edge>
    <edge id="-112455337#1" from="9084096851" to="9084096853" priority="1" type="highway.service" shape="1261.18,2072.24 1238.12,2083.38 1217.91,2093.19 1226.26,2121.30">
        <lane id="-112455337#1_0" index="0" allow="pedestrian delivery bicycle" speed="5.56" length="67.01" shape="1258.62,2075.26 1238.81,2084.82 1219.83,2094.03 1226.64,2116.97"/>
    </edge>
    <edge id="-133632584" from="317476217" to="1470845264" priority="1" type="highway.service" shape="1301.45,2105.08 1304.02,2100.16 1308.04,2092.48 1325.28,2059.49">
        <lane id="-133632584_0" index="0" allow="pedestrian delivery bicycle" speed="5.56" length="48.15" shape="1301.56,2101.42 1302.61,2099.42 1306.62,2091.74 1323.87,2058.75"/>
    </edge>
    <edge id="-490072918" from="1470831099" to="1470831097" priority="3" type="highway.residential" shape="1247.95,2215.98 1257.11,2195.17 1264.64,2178.53 1286.56,2131.72 1288.54,2124.76 1288.42,2121.75 1288.30,2118.19">
        <lane id="-490072918_0" index="0" disallow="tram rail_urban rail rail_electric rail_fast ship container cable_car subway aircraft wheelchair scooter drone" speed="13.89" length="100.79" shape="1246.48,2215.33 1255.65,2194.52 1263.19,2177.86 1285.06,2131.16 1286.93,2124.57 1286.88,2123.23"/>
    </edge>
    <edge id="1006451105" from="317476217" to="317476214" priority="11" type="highway.secondary" spreadType="center">
        <lane id="1006451105_0" index="0" disallow="tram rail_urban rail rail_electric rail_fast ship container cable_car subway aircraft wheelchair scooter drone" speed="27.78" length="0.20" shape="1304.94,2106.65 1305.13,2106.73"/>
        <param key="ref" value="D 57"/>
    </edge>
    <edge id="1006451106" from="9084096852" to="493923355" priority="3" type="highway.residential" shape="1271.45,2068.07 1272.06,2070.39 1273.91,2077.43">
        <lane id="1006451106_0" index="0" disallow="tram rail_urban rail rail_electric rail_fast ship container cable_car subway aircraft wheelchair scooter drone" speed="13.89" length="9.29" shape="1273.92,2071.19 1276.29,2080.17"/>
    </edge>
    <edge id="1006451107" from="9084096851" to="9084096852" priority="1" type="highway.service">
        <lane id="1006451107_0" index="0" allow="pedestrian delivery bicycle" speed="5.56" length="4.63" shape="1263.18,2069.70 1267.47,2067.96"/>
    </edge>
    <edge id="1017308046" from="1345678166" to="1345678158" priority="20" type="railway.rail" spreadType="center" shape="1278.72,2199.54 1285.34,2183.81 1292.38,2165.35 1305.79,2133.77" distance="-25988.00">
        <lane id="1017308046_0" index="0" allow="rail rail_electric rail_fast" speed="44.44" length="30.59" shape="1293.27,2163.25 1305.23,2135.10"/>
        <param key="railway:track_ref" value="830000"/>
    </edge>
    <edge id="112455337#0" from="1278105493" to="9084096853" priority="1" type="highway.service">
        <lane id="112455337#0_0" index="0" allow="pedestrian delivery bicycle" speed="5.56" length="11.74" shape="1228.88,2135.20 1225.41,2123.98"/>
    </edge>
    <edge id="112455337#1" from="9084096853" to="9084096851" priority="1" type="highway.service" shape="1226.26,2121.30 1217.91,2093.19 1238.12,2083.38 1261.18,2072.24">
        <lane id="112455337#1_0" index="0" allow="pedestrian delivery bicycle" speed="5.56" length="72.45" shape="1223.58,2117.88 1215.99,2092.34 1237.42,2081.94 1257.23,2072.38"/>
    </edge>
    <edge id="119905512#0" from="1345673201" to="1345678166" priority="20" type="railway.rail" spreadType="center" shape="1051.45,2629.22 1076.86,2585.01 1103.52,2542.66 1114.18,2525.23 1122.17,2511.40 1151.15,2460.33 1175.27,2416.32 1206.59,2356.72 1223.30,2322.85 1242.76,2280.98 1266.83,2227.24 1278.72,2199.54" distance="-25486.00">
        <lane id="119905512#0_0" index="0" allow="rail rail_electric rail_fast" speed="44.44" length="483.57" shape="1052.21,2627.91 1076.86,2585.01 1103.52,2542.66 1114.18,2525.23 1122.17,2511.40 1151.15,2460.33 1175.27,2416.32 1206.59,2356.72 1223.30,2322.85 1242.76,2280.98 1266.83,2227.24 1278.11,2200.96"/>
        <param key="railway:track_ref" value="A"/>
    </edge>
    <edge id="119905512#1" from="1345678166" to="1345678171" priority="20" type="railway.rail" spreadType="center" shape="1278.72,2199.54 1292.44,2171.89 1304.77,2148.73 1316.69,2123.95" distance="-25988.00">
        <lane id="119905512#1_0" index="0" allow="rail rail_electric rail_fast" speed="44.44" length="0.20" shape="1291.19,2174.24 1291.28,2174.06"/>
        <param key="railway:track_ref" value="A"/>
    </edge>
    <edge id="119905937#0" from="493923355" to="4878857992" priority="3" type="highway.residential" spreadType="center" shape="1273.91,2077.43 1281.88,2089.94 1283.30,2091.76">
        <lane id="119905937#0_0" index="0" disallow="tram rail_urban rail rail_electric rail_fast ship container cable_car subway aircraft wheelchair scooter drone" speed="13.89" length="3.53" shape="1279.56,2086.29 1281.45,2089.27"/>
    </edge>
    <edge id="119905937#1" from="4878857992" to="317476328" priority="3" type="highway.residential" spreadType="center" shape="1283.30,2091.76 1287.38,2096.81 1288.92,2100.17">
        <lane id="119905937#1_0" index="0" disallow="tram rail_urban rail rail_electric rail_fast ship container cable_car subway aircraft wheelchair scooter drone" speed="13.89" length="3.85" shape="1284.55,2093.31 1286.97,2096.30"/>
    </edge>
    <edge id="119905939#0" from="1345678201" to="1345678199" priority="11" type="highway.secondary" spreadType="center" shape="1282.10,2115.74 1276.30,2115.48 1270.68,2116.69">
        <lane id="119905939#0_0" index="0" disallow="tram rail_urban rail rail_electric rail_fast ship container cable_car subway aircraft wheelchair scooter drone" speed="27.78" length="4.47" shape="1277.27,2115.52 1276.30,2115.48 1272.88,2116.21"/>
        <param key="ref" value="D 57"/>
    </edge>
    <edge id="119905939#1" from="1345678199" to="4878857989" priority="11" type="highway.secondary" spreadType="center">
        <lane id="119905939#1_0" index="0" disallow="tram rail_urban rail rail_electric rail_fast ship container cable_car subway aircraft wheelchair scooter drone" speed="27.78" length="0.20" shape="1268.96,2117.30 1268.77,2117.37"/>
        <param key="ref" value="D 57"/>
    </edge>
    <edge id="119905939#2" from="4878857989" to="317476503" priority="11" type="highway.secondary" spreadType="center" shape="1267.34,2117.87 1251.36,2125.57">
        <lane id="119905939#2_0" index="0" disallow="tram rail_urban rail rail_electric rail_fast ship container cable_car subway aircraft wheelchair scooter drone" speed="27.78" length="14.61" shape="1264.65,2119.17 1251.49,2125.51"/>
        <param key="ref" value="D 57"/>
    </edge>
    <edge id="133631475#0" from="317476326" to="4878857993" priority="3" type="highway.residential" spreadType="center">
        <lane id="133631475#0_0" index="0" disallow="tram rail_urban rail rail_electric rail_fast ship container cable_car subway aircraft wheelchair scooter drone" speed="13.89" length="4.60" shape="1278.98,2100.54 1277.99,2096.04"/>
    </edge>
    <edge id="133631475#1" from="4878857993" to="493923355" priority="3" type="highway.residential" spreadType="center">
        <lane id="133631475#1_0" index="0" disallow="tram rail_urban rail rail_electric rail_fast ship container cable_car subway aircraft wheelchair scooter drone" speed="13.89" length="3.53" shape="1276.92,2091.14 1276.16,2087.70"/>
    </edge>
    <edge id="133631477#0" from="317476503" to="317476504" priority="11" type="highway.secondary" spreadType="center" shape="1249.95,2122.72 1269.04,2112.56">
        <lane id="133631477#0_0" index="0" disallow="tram rail_urban rail rail_electric rail_fast ship container cable_car subway aircraft wheelchair scooter drone" speed="27.78" length="18.83" shape="1250.05,2122.67 1266.67,2113.82"/>
        <param key="ref" value="D 57"/>
    </edge>
    <edge id="133631477#1" from="317476504" to="1827370424" priority="11" type="highway.secondary" spreadType="center" shape="1269.04,2112.56 1276.42,2109.29 1279.33,2108.01">
        <lane id="133631477#1_0" index="0" disallow="tram rail_urban rail rail_electric rail_fast ship container cable_car subway aircraft wheelchair scooter drone" speed="27.78" length="4.56" shape="1271.27,2111.57 1275.44,2109.73"/>
        <param key="ref" value="D 57"/>
    </edge>
    <edge id="133632584" from="1470845264" to="317476217" priority="1" type="highway.service" shape="1325.28,2059.49 1308.04,2092.48 1304.02,2100.16 1301.45,2105.08">
        <lane id="133632584_0" index="0" allow="pedestrian delivery bicycle" speed="5.56" length="48.15" shape="1326.70,2060.24 1309.45,2093.22 1305.44,2100.90 1304.39,2102.90"/>
    </edge>
    <edge id="239261044" from="1345678200" to="1345673042" priority="20" type="railway.rail" spreadType="center" shape="1360.55,2056.75 1322.26,2131.54 1305.26,2169.31 1281.23,2223.51 1258.92,2275.49 1237.19,2324.05 1218.96,2362.40 1191.76,2414.85" distance="-26147.00">
        <lane id="239261044_0" index="0" allow="rail rail_electric rail_fast" speed="43.06" length="396.04" shape="1360.55,2056.75 1322.26,2131.54 1305.26,2169.31 1281.23,2223.51 1258.92,2275.49 1237.19,2324.05 1218.96,2362.40 1191.76,2414.85"/>
        <param key="railway:track_ref" value="2"/>
    </edge>
    <edge id="28882504#0" from="317476128" to="1470831097" priority="11" type="highway.secondary" spreadType="center" shape="1291.55,2117.60 1289.95,2118.05 1288.30,2118.19">
        <lane id="28882504#0_0" index="0" disallow="tram rail_urban rail rail_electric rail_fast ship container cable_car subway aircraft wheelchair scooter drone" speed="27.78" length="0.20" shape="1292.62,2117.82 1292.42,2117.84"/>
    </edge>
    <edge id="28882504#1" from="1470831097" to="1345678201" priority="11" type="highway.secondary" spreadType="center" shape="1288.30,2118.19 1286.04,2117.91 1283.93,2117.08 1282.10,2115.74">
        <lane id="28882504#1_0" index="0" disallow="tram rail_urban rail rail_electric rail_fast ship container cable_car subway aircraft wheelchair scooter drone" speed="27.78" length="0.20" shape="1283.06,2116.27 1282.88,2116.17"/>
    </edge>
    <edge id="28882504#2" from="1345678201" to="1827370424" priority="11" type="highway.secondary" spreadType="center" shape="1282.10,2115.74 1280.36,2113.51 1279.41,2110.84 1279.33,2108.01">
        <lane id="28882504#2_0" index="0" disallow="tram rail_urban rail rail_electric rail_fast ship container cable_car subway aircraft wheelchair scooter drone" speed="27.78" length="0.20" shape="1279.81,2111.96 1279.74,2111.77"/>
    </edge>
    <edge id="28882504#3" from="1827370424" to="317476326" priority="11" type="highway.secondary" spreadType="center">
        <lane id="28882504#3_0" index="0" disallow="tram rail_urban rail rail_electric rail_fast ship container cable_car subway aircraft wheelchair scooter drone" speed="27.78" length="0.20" shape="1279.75,2106.52 1279.81,2106.33"/>
    </edge>
    <edge id="28882504#4" from="317476326" to="317476328" priority="11" type="highway.secondary" spreadType="center" shape="1280.06,2105.46 1281.55,2103.17 1283.66,2101.43 1286.20,2100.40 1288.92,2100.17">
        <lane id="28882504#4_0" index="0" disallow="tram rail_urban rail rail_electric rail_fast ship container cable_car subway aircraft wheelchair scooter drone" speed="27.78" length="1.47" shape="1283.39,2101.64 1283.66,2101.43 1284.70,2101.00"/>
    </edge>