<?xml version="1.0" encoding="UTF-8"?>

<!-- generated on 2024-09-03 01:37:09 by Eclipse SUMO netconvert Version 1.20.0
<configuration xmlns:xsi="http://www.w3.org/2001/XMLSchema-instance" xsi:noNamespaceSchemaLocation="http://sumo.dlr.de/xsd/netconvertConfiguration.xsd">

    <input>
        <osm-files value="train_files/intersection/easy/osm_files/map(60).osm"/>
    </input>

    <output>
        <output-file value="train_files/intersection/easy/outputs/map(60)_dict/map(60)/map(60).net.xml"/>
    </output>

    <projection>
        <proj.utm value="true"/>
    </projection>

    <building_defaults>
        <default.junctions.keep-clear value="false"/>
    </building_defaults>

</configuration>
-->

<net version="1.20" junctionCornerDetail="5" limitTurnSpeed="5.50" xmlns:xsi="http://www.w3.org/2001/XMLSchema-instance" xsi:noNamespaceSchemaLocation="http://sumo.dlr.de/xsd/net_file.xsd">

    <location netOffset="-449782.58,-5416610.00" convBoundary="0.00,0.00,157.41,143.72" origBoundary="2.314776,48.900412,2.316941,48.901692" projParameter="+proj=utm +zone=31 +ellps=WGS84 +datum=WGS84 +units=m +no_defs"/>

    <type id="highway.secondary" priority="11" numLanes="1" speed="27.78" disallow="tram rail_urban rail rail_electric rail_fast ship container cable_car subway aircraft wheelchair scooter drone" oneway="0"/>

    <edge id=":1324738936_0" function="internal">
        <lane id=":1324738936_0_0" index="0" disallow="tram rail_urban rail rail_electric rail_fast ship container cable_car subway aircraft wheelchair scooter drone" speed="13.89" length="0.10" shape="95.24,49.46 95.18,49.40"/>
        <lane id=":1324738936_0_1" index="1" disallow="tram rail_urban rail rail_electric rail_fast ship container cable_car subway aircraft wheelchair scooter drone" speed="13.89" length="0.10" shape="92.91,51.65 92.87,51.61"/>
    </edge>
    <edge id=":1324738961_0" function="internal">
        <lane id=":1324738961_0_0" index="0" disallow="tram rail_urban rail rail_electric rail_fast ship container cable_car subway aircraft wheelchair scooter drone" speed="13.89" length="0.28" shape="72.11,58.45 71.91,58.65"/>
    </edge>
    <edge id=":1324738961_1" function="internal">
        <lane id=":1324738961_1_0" index="0" disallow="tram rail_urban rail rail_electric rail_fast ship container cable_car subway aircraft wheelchair scooter drone" speed="13.89" length="0.15" shape="69.64,56.40 69.74,56.30"/>
    </edge>
    <edge id=":1324738983_0" function="internal">
        <lane id=":1324738983_0_0" index="0" disallow="tram rail_urban rail rail_electric rail_fast ship container cable_car subway aircraft wheelchair scooter drone" speed="13.89" length="0.28" shape="76.88,31.45 77.12,31.65"/>
        <lane id=":1324738983_0_1" index="1" disallow="tram rail_urban rail rail_electric rail_fast ship container cable_car subway aircraft wheelchair scooter drone" speed="13.89" length="0.28" shape="74.79,33.87 74.97,34.03"/>
    </edge>
    <edge id=":1324738985_0" function="internal">
        <lane id=":1324738985_0_0" index="0" disallow="tram rail_urban rail rail_electric rail_fast ship container cable_car subway aircraft wheelchair scooter drone" speed="13.89" length="0.29" shape="98.24,40.79 98.01,40.93"/>
        <lane id=":1324738985_0_1" index="1" disallow="tram rail_urban rail rail_electric rail_fast ship container cable_car subway aircraft wheelchair scooter drone" speed="13.89" length="0.29" shape="96.54,38.07 96.28,38.24"/>
    </edge>
    <edge id=":16818184_0" function="internal">
        <lane id=":16818184_0_0" index="0" disallow="tram rail_urban rail rail_electric rail_fast ship container cable_car subway aircraft wheelchair scooter drone" speed="6.07" length="8.78" shape="96.27,42.05 94.33,43.71 93.49,45.47 93.75,47.34 95.10,49.31"/>
        <lane id=":16818184_0_1" index="1" disallow="tram rail_urban rail rail_electric rail_fast ship container cable_car subway aircraft wheelchair scooter drone" speed="7.65" length="14.65" shape="94.53,39.37 91.35,42.11 90.00,45.05 90.47,48.18 92.77,51.51"/>
    </edge>
    <edge id=":16818184_2" function="internal">
        <lane id=":16818184_2_0" index="0" disallow="pedestrian tram rail_urban rail rail_electric rail_fast ship container cable_car subway aircraft wheelchair scooter drone" speed="13.89" length="13.16" shape="94.53,39.37 91.24,41.81 89.08,43.95 87.24,46.02 84.89,48.27"/>
    </edge>
    <edge id=":16818184_3" function="internal">
        <lane id=":16818184_3_0" index="0" disallow="tram rail_urban rail rail_electric rail_fast ship container cable_car subway aircraft wheelchair scooter drone" speed="13.89" length="10.54" shape="87.83,41.65 95.10,49.31"/>
        <lane id=":16818184_3_1" index="1" disallow="tram rail_urban rail rail_electric rail_fast ship container cable_car subway aircraft wheelchair scooter drone" speed="13.89" length="10.54" shape="85.54,43.87 92.77,51.51"/>
    </edge>
    <edge id=":16818184_5" function="internal">
        <lane id=":16818184_5_0" index="0" disallow="pedestrian tram rail_urban rail rail_electric rail_fast ship container cable_car subway aircraft wheelchair scooter drone" speed="4.99" length="0.91" shape="85.54,43.87 86.05,44.62"/>
    </edge>
    <edge id=":16818184_6" function="internal">
        <lane id=":16818184_6_0" index="0" disallow="pedestrian tram rail_urban rail rail_electric rail_fast ship container cable_car subway aircraft wheelchair scooter drone" speed="4.99" length="4.23" shape="86.05,44.62 86.27,44.94 86.40,46.03 85.95,47.14 84.89,48.27"/>
    </edge>
    <edge id=":249499891_0" function="internal">
        <lane id=":249499891_0_0" index="0" disallow="tram rail_urban rail rail_electric rail_fast ship container cable_car subway aircraft wheelchair scooter drone" speed="3.65" length="4.67" shape="1.26,144.70 -0.11,145.15 -0.98,144.98 -1.37,144.17 -1.26,142.73"/>
    </edge>
    <edge id=":5376423307_0" function="internal">
        <lane id=":5376423307_0_0" index="0" disallow="tram rail_urban rail rail_electric rail_fast ship container cable_car subway aircraft wheelchair scooter drone" speed="3.66" length="4.56" shape="39.78,7.04 39.49,5.67 39.76,4.84 40.59,4.55 41.97,4.82"/>
    </edge>
    <edge id=":5376423311_0" function="internal">
        <lane id=":5376423311_0_0" index="0" disallow="tram rail_urban rail rail_electric rail_fast ship container cable_car subway aircraft wheelchair scooter drone" speed="13.89" length="0.63" shape="91.05,32.16 91.27,31.97 91.42,31.85 91.59,31.75 91.83,31.61"/>
        <lane id=":5376423311_0_1" index="1" disallow="tram rail_urban rail rail_electric rail_fast ship container cable_car subway aircraft wheelchair scooter drone" speed="13.89" length="0.63" shape="93.15,34.58 93.22,34.51 93.27,34.48 93.33,34.44 93.41,34.39"/>
    </edge>
    <edge id=":5376423312_0" function="internal">
        <lane id=":5376423312_0_0" index="0" disallow="tram rail_urban rail rail_electric rail_fast ship container cable_car subway aircraft wheelchair scooter drone" speed="6.92" length="9.39" shape="79.95,34.21 82.08,35.67 84.20,36.20 86.30,35.80 88.39,34.46"/>
    </edge>
    <edge id=":5376423312_1" function="internal">
        <lane id=":5376423312_1_0" index="0" disallow="tram rail_urban rail rail_electric rail_fast ship container cable_car subway aircraft wheelchair scooter drone" speed="13.89" length="10.53" shape="79.95,34.21 87.69,41.50"/>
        <lane id=":5376423312_1_1" index="1" disallow="tram rail_urban rail rail_electric rail_fast ship container cable_car subway aircraft wheelchair scooter drone" speed="13.89" length="10.53" shape="77.81,36.59 85.40,43.73"/>
    </edge>
    <edge id=":5376423312_3" function="internal">
        <lane id=":5376423312_3_0" index="0" disallow="tram rail_urban rail rail_electric rail_fast ship container cable_car subway aircraft wheelchair scooter drone" speed="13.89" length="11.96" shape="79.34,42.27 88.39,34.46"/>
        <lane id=":5376423312_3_1" index="1" disallow="tram rail_urban rail rail_electric rail_fast ship container cable_car subway aircraft wheelchair scooter drone" speed="13.89" length="11.96" shape="81.42,44.70 90.48,36.88"/>
    </edge>
    <edge id=":5376423312_5" function="internal">
        <lane id=":5376423312_5_0" index="0" disallow="tram rail_urban rail rail_electric rail_fast ship container cable_car subway aircraft wheelchair scooter drone" speed="4.92" length="1.70" shape="81.42,44.70 82.68,43.77 82.80,43.72"/>
    </edge>
    <edge id=":5376423312_6" function="internal">
        <lane id=":5376423312_6_0" index="0" disallow="tram rail_urban rail rail_electric rail_fast ship container cable_car subway aircraft wheelchair scooter drone" speed="4.92" length="2.80" shape="82.80,43.72 83.76,43.31 84.66,43.29 85.40,43.73"/>
    </edge>
    <edge id=":5376423314_0" function="internal">
        <lane id=":5376423314_0_0" index="0" disallow="tram rail_urban rail rail_electric rail_fast ship container cable_car subway aircraft wheelchair scooter drone" speed="13.89" length="0.30" shape="67.00,39.06 66.78,38.85"/>
        <lane id=":5376423314_0_1" index="1" disallow="tram rail_urban rail rail_electric rail_fast ship container cable_car subway aircraft wheelchair scooter drone" speed="13.89" length="0.30" shape="69.19,36.73 68.98,36.53"/>
    </edge>
    <edge id=":5376423315_0" function="internal">
        <lane id=":5376423315_0_0" index="0" disallow="tram rail_urban rail rail_electric rail_fast ship container cable_car subway aircraft wheelchair scooter drone" speed="13.89" length="0.21" shape="85.04,56.72 84.81,56.49"/>
        <lane id=":5376423315_0_1" index="1" disallow="tram rail_urban rail rail_electric rail_fast ship container cable_car subway aircraft wheelchair scooter drone" speed="13.89" length="0.21" shape="87.22,54.37 87.14,54.30"/>
    </edge>
    <edge id=":5376423317_0" function="internal">
        <lane id=":5376423317_0_0" index="0" disallow="pedestrian tram rail_urban rail rail_electric rail_fast ship container cable_car subway aircraft wheelchair scooter drone" speed="13.89" length="6.43" shape="79.17,52.01 77.48,52.83 76.44,53.62 75.54,54.61 74.29,56.05"/>
    </edge>
    <edge id=":5376423317_1" function="internal">
        <lane id=":5376423317_1_0" index="0" disallow="tram rail_urban rail rail_electric rail_fast ship container cable_car subway aircraft wheelchair scooter drone" speed="13.89" length="6.20" shape="71.93,53.90 72.94,52.59 73.40,51.55 73.72,50.41 74.29,48.82"/>
        <lane id=":5376423317_1_1" index="1" disallow="tram rail_urban rail rail_electric rail_fast ship container cable_car subway aircraft wheelchair scooter drone" speed="13.89" length="6.20" shape="71.93,53.90 73.51,52.70 74.93,52.21 76.18,51.60 77.23,50.07"/>
    </edge>
    <edge id=":5376423317_3" function="internal">
        <lane id=":5376423317_3_0" index="0" disallow="tram rail_urban rail rail_electric rail_fast ship container cable_car subway aircraft wheelchair scooter drone" speed="3.65" length="1.44" shape="71.93,53.90 73.33,53.55"/>
    </edge>
    <edge id=":5376423317_4" function="internal">
        <lane id=":5376423317_4_0" index="0" disallow="tram rail_urban rail rail_electric rail_fast ship container cable_car subway aircraft wheelchair scooter drone" speed="3.65" length="3.23" shape="73.33,53.55 74.19,53.79 74.51,54.63 74.29,56.05"/>
    </edge>
    <edge id=":5376423318_0" function="internal">
        <lane id=":5376423318_0_0" index="0" disallow="tram rail_urban rail rail_electric rail_fast ship container cable_car subway aircraft wheelchair scooter drone" speed="6.39" length="13.44" shape="110.78,66.74 111.87,70.83 111.23,73.24 108.85,73.98 104.72,73.05"/>
        <lane id=":5376423318_0_1" index="1" disallow="tram rail_urban rail rail_electric rail_fast ship container cable_car subway aircraft wheelchair scooter drone" speed="4.07" length="4.48" shape="107.81,67.93 108.17,69.29 107.96,70.10 107.16,70.34 105.79,70.03"/>
    </edge>
    <edge id=":6329696252_0" function="internal">
        <lane id=":6329696252_0_0" index="0" disallow="tram rail_urban rail rail_electric rail_fast ship container cable_car subway aircraft wheelchair scooter drone" speed="13.89" length="0.30" shape="69.45,61.36 69.27,61.60"/>
    </edge>
    <edge id=":6329696252_1" function="internal">
        <lane id=":6329696252_1_0" index="0" disallow="tram rail_urban rail rail_electric rail_fast ship container cable_car subway aircraft wheelchair scooter drone" speed="13.89" length="0.30" shape="66.75,59.62 66.94,59.38"/>
    </edge>
    <edge id=":6329696253_0" function="internal">
        <lane id=":6329696253_0_0" index="0" disallow="tram rail_urban rail rail_electric rail_fast ship container cable_car subway aircraft wheelchair scooter drone" speed="13.89" length="0.28" shape="87.49,58.99 87.26,58.78"/>
        <lane id=":6329696253_0_1" index="1" disallow="tram rail_urban rail rail_electric rail_fast ship container cable_car subway aircraft wheelchair scooter drone" speed="13.89" length="0.28" shape="89.62,56.61 89.44,56.44"/>
    </edge>
    <edge id=":6329696254_0" function="internal">
        <lane id=":6329696254_0_0" index="0" disallow="tram rail_urban rail rail_electric rail_fast ship container cable_car subway aircraft wheelchair scooter drone" speed="13.89" length="0.26" shape="100.92,39.25 100.65,39.40"/>
        <lane id=":6329696254_0_1" index="1" disallow="tram rail_urban rail rail_electric rail_fast ship container cable_car subway aircraft wheelchair scooter drone" speed="13.89" length="0.26" shape="99.32,36.47 99.13,36.58"/>
    </edge>
    <edge id=":6329696255_0" function="internal">
        <lane id=":6329696255_0_0" index="0" disallow="tram rail_urban rail rail_electric rail_fast ship container cable_car subway aircraft wheelchair scooter drone" speed="13.89" length="0.30" shape="74.91,29.74 75.13,29.93"/>
        <lane id=":6329696255_0_1" index="1" disallow="tram rail_urban rail rail_electric rail_fast ship container cable_car subway aircraft wheelchair scooter drone" speed="13.89" length="0.30" shape="72.81,32.15 73.04,32.35"/>
    </edge>
    <edge id=":9738010641_0" function="internal">
        <lane id=":9738010641_0_0" index="0" disallow="pedestrian tram rail_urban rail rail_electric rail_fast ship container cable_car subway aircraft wheelchair scooter drone" speed="6.07" length="5.64" shape="83.72,55.33 82.88,54.44 81.63,53.21 80.33,52.19 79.35,51.93"/>
    </edge>
    <edge id=":9738010641_1" function="internal">
        <lane id=":9738010641_1_0" index="0" disallow="tram rail_urban rail rail_electric rail_fast ship container cable_car subway aircraft wheelchair scooter drone" speed="13.89" length="6.92" shape="83.72,55.33 78.96,50.40"/>
        <lane id=":9738010641_1_1" index="1" disallow="tram rail_urban rail rail_electric rail_fast ship container cable_car subway aircraft wheelchair scooter drone" speed="13.89" length="6.92" shape="86.05,53.14 81.20,48.12"/>
    </edge>
    <edge id=":9738010641_3" function="internal">
        <lane id=":9738010641_3_0" index="0" disallow="pedestrian tram rail_urban rail rail_electric rail_fast ship container cable_car subway aircraft wheelchair scooter drone" speed="13.89" length="6.48" shape="84.74,48.40 83.27,49.65 82.23,50.47 81.10,51.14 79.35,51.93"/>
    </edge>
    <edge id=":9738010641_4" function="internal">
        <lane id=":9738010641_4_0" index="0" disallow="pedestrian tram rail_urban rail rail_electric rail_fast ship container cable_car subway aircraft wheelchair scooter drone" speed="4.73" length="3.96" shape="84.74,48.40 83.86,48.93 82.98,49.07 82.09,48.79 81.20,48.12"/>
    </edge>
    <edge id=":9738010642_0" function="internal">
        <lane id=":9738010642_0_0" index="0" disallow="tram rail_urban rail rail_electric rail_fast ship container cable_car subway aircraft wheelchair scooter drone" speed="13.89" length="9.66" shape="78.82,50.26 71.86,43.61"/>
        <lane id=":9738010642_0_1" index="1" disallow="tram rail_urban rail rail_electric rail_fast ship container cable_car subway aircraft wheelchair scooter drone" speed="13.89" length="9.66" shape="81.06,47.98 74.05,41.28"/>
    </edge>
    <edge id=":9738010642_2" function="internal">
        <lane id=":9738010642_2_0" index="0" disallow="tram rail_urban rail rail_electric rail_fast ship container cable_car subway aircraft wheelchair scooter drone" speed="4.35" length="0.49" shape="81.06,47.98 80.76,47.58"/>
    </edge>
    <edge id=":9738010642_6" function="internal">
        <lane id=":9738010642_6_0" index="0" disallow="tram rail_urban rail rail_electric rail_fast ship container cable_car subway aircraft wheelchair scooter drone" speed="4.35" length="3.18" shape="80.76,47.58 80.47,47.19 80.31,46.40 80.57,45.61 81.27,44.83"/>
    </edge>
    <edge id=":9738010642_3" function="internal">
        <lane id=":9738010642_3_0" index="0" disallow="tram rail_urban rail rail_electric rail_fast ship container cable_car subway aircraft wheelchair scooter drone" speed="6.20" length="5.92" shape="74.36,48.64 74.51,47.60 74.14,46.42 73.26,45.09 71.86,43.61"/>
    </edge>
    <edge id=":9738010642_4" function="internal">
        <lane id=":9738010642_4_0" index="0" disallow="tram rail_urban rail rail_electric rail_fast ship container cable_car subway aircraft wheelchair scooter drone" speed="13.89" length="7.27" shape="74.36,48.64 75.34,46.49 76.23,45.12 77.39,43.95 79.19,42.40"/>
        <lane id=":9738010642_4_1" index="1" disallow="tram rail_urban rail rail_electric rail_fast ship container cable_car subway aircraft wheelchair scooter drone" speed="13.58" length="7.27" shape="77.31,49.88 78.11,48.14 78.85,47.03 79.80,46.09 81.27,44.83"/>
    </edge>

    <edge id="-810324789#0" from="1324738961" to="5376423317" priority="11" type="highway.secondary">
        <lane id="-810324789#0_0" index="0" disallow="tram rail_urban rail rail_electric rail_fast ship container cable_car subway aircraft wheelchair scooter drone" speed="13.89" length="3.25" shape="69.74,56.30 71.93,53.90"/>
        <param key="ref" value="D 110"/>
    </edge>
    <edge id="-810324789#1" from="6329696252" to="1324738961" priority="11" type="highway.secondary" shape="68.10,60.49 69.09,59.24 70.85,57.45">
        <lane id="-810324789#1_0" index="0" disallow="tram rail_urban rail rail_electric rail_fast ship container cable_car subway aircraft wheelchair scooter drone" speed="13.89" length="4.03" shape="66.94,59.38 67.89,58.18 69.64,56.40"/>
        <param key="ref" value="D 110"/>
    </edge>
    <edge id="-810324789#2" from="249499891" to="6329696252" priority="11" type="highway.secondary" shape="0.00,143.72 6.83,134.96 27.45,110.03 34.30,102.48 56.69,74.98 68.10,60.49">
        <lane id="-810324789#2_0" index="0" disallow="tram rail_urban rail rail_electric rail_fast ship container cable_car subway aircraft wheelchair scooter drone" speed="13.89" length="107.42" shape="-1.26,142.73 5.58,133.96 26.24,108.98 33.09,101.44 55.44,73.98 66.75,59.62"/>
        <param key="ref" value="D 110"/>
    </edge>
    <edge id="1059907219" from="9738010641" to="9738010642" priority="11" type="highway.secondary" spreadType="center">
        <lane id="1059907219_0" index="0" disallow="tram rail_urban rail rail_electric rail_fast ship container cable_car subway aircraft wheelchair scooter drone" speed="13.89" length="0.20" shape="78.96,50.40 78.82,50.26"/>
        <lane id="1059907219_1" index="1" disallow="tram rail_urban rail rail_electric rail_fast ship container cable_car subway aircraft wheelchair scooter drone" speed="13.89" length="0.20" shape="81.20,48.12 81.06,47.98"/>
        <param key="ref" value="D 912"/>
    </edge>
    <edge id="1059907220#0" from="5376423312" to="5376423311" priority="11" type="highway.secondary" spreadType="center">
        <lane id="1059907220#0_0" index="0" disallow="tram rail_urban rail rail_electric rail_fast ship container cable_car subway aircraft wheelchair scooter drone" speed="13.89" length="3.52" shape="88.39,34.46 91.05,32.16"/>
        <lane id="1059907220#0_1" index="1" disallow="tram rail_urban rail rail_electric rail_fast ship container cable_car subway aircraft wheelchair scooter drone" speed="13.89" length="3.52" shape="90.48,36.88 93.15,34.58"/>
        <param key="ref" value="D 110"/>
    </edge>
    <edge id="1059907220#1" from="5376423311" to="5376423309" priority="11" type="highway.secondary" spreadType="center" shape="92.34,33.16 134.72,9.15 138.28,7.71 157.41,0.00">
        <lane id="1059907220#1_0" index="0" disallow="tram rail_urban rail rail_electric rail_fast ship container cable_car subway aircraft wheelchair scooter drone" speed="13.89" length="72.85" shape="91.83,31.61 134.03,7.71 137.68,6.23 156.81,-1.48"/>
        <lane id="1059907220#1_1" index="1" disallow="tram rail_urban rail rail_electric rail_fast ship container cable_car subway aircraft wheelchair scooter drone" speed="13.89" length="72.85" shape="93.41,34.39 135.42,10.60 138.88,9.19 158.01,1.48"/>
        <param key="ref" value="D 110"/>
    </edge>
    <edge id="1059907221" from="5376423312" to="16818184" priority="11" type="highway.secondary" spreadType="center">
        <lane id="1059907221_0" index="0" disallow="tram rail_urban rail rail_electric rail_fast ship container cable_car subway aircraft wheelchair scooter drone" speed="13.89" length="0.20" shape="87.69,41.50 87.83,41.65"/>
        <lane id="1059907221_1" index="1" disallow="tram rail_urban rail rail_electric rail_fast ship container cable_car subway aircraft wheelchair scooter drone" speed="13.89" length="0.20" shape="85.40,43.73 85.54,43.87"/>
        <param key="ref" value="D 912"/>
    </edge>
    <edge id="1059907222" from="9738010641" to="5376423317" priority="11" type="highway.secondary" spreadType="center">
        <lane id="1059907222_0" index="0" disallow="pedestrian tram rail_urban rail rail_electric rail_fast ship container cable_car subway aircraft wheelchair scooter drone" speed="13.89" length="0.20" shape="79.35,51.93 79.17,52.01"/>
        <param key="ref" value="D 110"/>
    </edge>
    <edge id="1059907223" from="9738010642" to="5376423312" priority="11" type="highway.secondary" spreadType="center">
        <lane id="1059907223_0" index="0" disallow="tram rail_urban rail rail_electric rail_fast ship container cable_car subway aircraft wheelchair scooter drone" speed="13.89" length="0.20" shape="79.19,42.40 79.34,42.27"/>
        <lane id="1059907223_1" index="1" disallow="tram rail_urban rail rail_electric rail_fast ship container cable_car subway aircraft wheelchair scooter drone" speed="13.89" length="0.20" shape="81.27,44.83 81.42,44.70"/>
        <param key="ref" value="D 110"/>
    </edge>
    <edge id="557467385" from="16818184" to="9738010641" priority="11" type="highway.secondary" spreadType="center">
        <lane id="557467385_0" index="0" disallow="pedestrian tram rail_urban rail rail_electric rail_fast ship container cable_car subway aircraft wheelchair scooter drone" speed="13.89" length="0.20" shape="84.89,48.27 84.74,48.40"/>
        <param key="ref" value="D 110"/>
    </edge>
    <edge id="557467394#0" from="9738010642" to="5376423314" priority="11" type="highway.secondary" spreadType="center">
        <lane id="557467394#0_0" index="0" disallow="tram rail_urban rail rail_electric rail_fast ship container cable_car subway aircraft wheelchair scooter drone" speed="13.89" length="6.66" shape="71.86,43.61 67.00,39.06"/>
        <lane id="557467394#0_1" index="1" disallow="tram rail_urban rail rail_electric rail_fast ship container cable_car subway aircraft wheelchair scooter drone" speed="13.89" length="6.66" shape="74.05,41.28 69.19,36.73"/>
        <param key="ref" value="D 912"/>
    </edge>
    <edge id="557467394#1" from="5376423314" to="5376423307" priority="11" type="highway.secondary" spreadType="center" shape="67.98,37.79 62.34,32.45 52.07,22.69 38.26,7.76">
        <lane id="557467394#1_0" index="0" disallow="tram rail_urban rail rail_electric rail_fast ship container cable_car subway aircraft wheelchair scooter drone" speed="13.89" length="41.62" shape="66.78,38.85 61.24,33.61 50.93,23.82 37.43,9.22"/>
        <lane id="557467394#1_1" index="1" disallow="tram rail_urban rail rail_electric rail_fast ship container cable_car subway aircraft wheelchair scooter drone" speed="13.89" length="41.62" shape="68.98,36.53 63.44,31.29 53.21,21.57 39.78,7.04"/>
        <param key="ref" value="D 912"/>
    </edge>
    <edge id="557467397#0" from="5376423307" to="6329696255" priority="11" type="highway.secondary" spreadType="center" shape="42.69,3.31 58.66,17.72 73.97,31.04">
        <lane id="557467397#0_0" index="0" disallow="tram rail_urban rail rail_electric rail_fast ship container cable_car subway aircraft wheelchair scooter drone" speed="13.89" length="41.18" shape="44.11,2.45 59.73,16.52 74.91,29.74"/>
        <lane id="557467397#0_1" index="1" disallow="tram rail_urban rail rail_electric rail_fast ship container cable_car subway aircraft wheelchair scooter drone" speed="13.89" length="41.18" shape="41.97,4.82 57.60,18.92 72.81,32.15"/>
        <param key="ref" value="D 912"/>
    </edge>
    <edge id="557467397#1" from="6329696255" to="1324738983" priority="11" type="highway.secondary" spreadType="center">
        <lane id="557467397#1_0" index="0" disallow="tram rail_urban rail rail_electric rail_fast ship container cable_car subway aircraft wheelchair scooter drone" speed="13.89" length="2.32" shape="75.13,29.93 76.88,31.45"/>
        <lane id="557467397#1_1" index="1" disallow="tram rail_urban rail rail_electric rail_fast ship container cable_car subway aircraft wheelchair scooter drone" speed="13.89" length="2.32" shape="73.04,32.35 74.79,33.87"/>
        <param key="ref" value="D 912"/>
    </edge>
    <edge id="557467397#2" from="1324738983" to="5376423312" priority="11" type="highway.secondary" spreadType="center">
        <lane id="557467397#2_0" index="0" disallow="tram rail_urban rail rail_electric rail_fast ship container cable_car subway aircraft wheelchair scooter drone" speed="13.89" length="3.82" shape="77.12,31.65 79.95,34.21"/>
        <lane id="557467397#2_1" index="1" disallow="tram rail_urban rail rail_electric rail_fast ship container cable_car subway aircraft wheelchair scooter drone" speed="13.89" length="3.82" shape="74.97,34.03 77.81,36.59"/>
        <param key="ref" value="D 912"/>
    </edge>
    <edge id="557467400" from="5376423317" to="9738010642" priority="11" type="highway.secondary" spreadType="center">
        <lane id="557467400_0" index="0" disallow="tram rail_urban rail rail_electric rail_fast ship container cable_car subway aircraft wheelchair scooter drone" speed="13.89" length="0.20" shape="74.29,48.82 74.36,48.64"/>
        <lane id="557467400_1" index="1" disallow="tram rail_urban rail rail_electric rail_fast ship container cable_car subway aircraft wheelchair scooter drone" speed="13.89" length="0.20" shape="77.23,50.07 77.31,49.88"/>
        <param key="ref" value="D 110"/>
    </edge>
    <edge id="60268730#0" from="249533131" to="6329696254" priority="11" type="highway.secondary" spreadType="center">
        <lane id="60268730#0_0" index="0" disallow="tram rail_urban rail rail_electric rail_fast ship container cable_car subway aircraft wheelchair scooter drone" speed="13.89" length="27.74" shape="124.95,25.39 100.92,39.25"/>
        <lane id="60268730#0_1" index="1" disallow="tram rail_urban rail rail_electric rail_fast ship container cable_car subway aircraft wheelchair scooter drone" speed="13.89" length="27.74" shape="123.35,22.61 99.32,36.47"/>
        <param key="ref" value="D 110"/>
    </edge>
    <edge id="60268730#1" from="6329696254" to="1324738985" priority="11" type="highway.secondary" spreadType="center" shape="100.01,37.93 98.50,38.74 97.27,39.51">
        <lane id="60268730#1_0" index="0" disallow="tram rail_urban rail rail_electric rail_fast ship container cable_car subway aircraft wheelchair scooter drone" speed="13.89" length="2.89" shape="100.65,39.40 99.30,40.13 98.24,40.79"/>
        <lane id="60268730#1_1" index="1" disallow="tram rail_urban rail rail_electric rail_fast ship container cable_car subway aircraft wheelchair scooter drone" speed="13.89" length="2.89" shape="99.13,36.58 97.70,37.35 96.54,38.07"/>
        <param key="ref" value="D 110"/>
    </edge>
    <edge id="60268730#2" from="1324738985" to="16818184" priority="11" type="highway.secondary" spreadType="center">
        <lane id="60268730#2_0" index="0" disallow="tram rail_urban rail rail_electric rail_fast ship container cable_car subway aircraft wheelchair scooter drone" speed="13.89" length="2.08" shape="98.01,40.93 96.27,42.05"/>
        <lane id="60268730#2_1" index="1" disallow="tram rail_urban rail rail_electric rail_fast ship container cable_car subway aircraft wheelchair scooter drone" speed="13.89" length="2.08" shape="96.28,38.24 94.53,39.37"/>
        <param key="ref" value="D 110"/>
    </edge>
    <edge id="60268748#0" from="16818184" to="1324738936" priority="11" type="highway.secondary" spreadType="center">
        <lane id="60268748#0_0" index="0" disallow="tram rail_urban rail rail_electric rail_fast ship container cable_car subway aircraft wheelchair scooter drone" speed="13.89" length="0.20" shape="95.10,49.31 95.24,49.46"/>
        <lane id="60268748#0_1" index="1" disallow="tram rail_urban rail rail_electric rail_fast ship container cable_car subway aircraft wheelchair scooter drone" speed="13.89" length="0.20" shape="92.77,51.51 92.91,51.65"/>
        <param key="ref" value="D 912"/>
    </edge>
    <edge id="60268748#1" from="1324738936" to="5376423318" priority="11" type="highway.secondary" spreadType="center" shape="93.93,50.40 108.66,65.75 111.91,73.89">
        <lane id="60268748#1_0" index="0" disallow="tram rail_urban rail rail_electric rail_fast ship container cable_car subway aircraft wheelchair scooter drone" speed="13.89" length="22.84" shape="95.18,49.40 110.03,64.87 110.78,66.74"/>