<?xml version="1.0" encoding="UTF-8"?>

<!-- generated on 2024-09-03 01:37:48 by Eclipse SUMO netconvert Version 1.20.0
<configuration xmlns:xsi="http://www.w3.org/2001/XMLSchema-instance" xsi:noNamespaceSchemaLocation="http://sumo.dlr.de/xsd/netconvertConfiguration.xsd">

    <input>
        <osm-files value="train_files/roundabout/middle/osm_files/map(30).osm"/>
    </input>

    <output>
        <output-file value="train_files/roundabout/middle/outputs/map(30)_dict/map(30)/map(30).net.xml"/>
    </output>

    <projection>
        <proj.utm value="true"/>
    </projection>

    <building_defaults>
        <default.junctions.keep-clear value="false"/>
    </building_defaults>

</configuration>
-->

<net version="1.20" junctionCornerDetail="5" limitTurnSpeed="5.50" xmlns:xsi="http://www.w3.org/2001/XMLSchema-instance" xsi:noNamespaceSchemaLocation="http://sumo.dlr.de/xsd/net_file.xsd">

    <location netOffset="-458222.03,-5381354.00" convBoundary="0.00,0.00,1063.25,831.87" origBoundary="2.433454,48.583921,2.447913,48.591390" projParameter="+proj=utm +zone=31 +ellps=WGS84 +datum=WGS84 +units=m +no_defs"/>

    <type id="highway.cycleway" priority="1" numLanes="1" speed="5.56" allow="bicycle" oneway="0" width="2.00"/>
    <type id="highway.footway" priority="1" numLanes="1" speed="2.78" allow="pedestrian" oneway="1" width="2.00"/>
    <type id="highway.service" priority="1" numLanes="1" speed="5.56" allow="pedestrian delivery bicycle" oneway="0"/>
    <type id="highway.unclassified" priority="4" numLanes="1" speed="13.89" disallow="tram rail_urban rail rail_electric rail_fast ship container cable_car subway aircraft wheelchair scooter drone" oneway="0"/>

    <edge id=":2153071096_0" function="internal">
        <lane id=":2153071096_0_0" index="0" allow="pedestrian delivery bicycle" speed="5.56" length="8.47" shape="853.95,432.57 856.55,433.49 858.77,433.85 860.60,433.66 862.05,432.92"/>
        <lane id=":2153071096_0_1" index="1" allow="pedestrian delivery bicycle" speed="5.56" length="11.33" shape="853.29,435.77 856.50,436.83 859.37,437.12 861.89,436.64 864.06,435.40"/>
    </edge>
    <edge id=":2153071096_2" function="internal">
        <lane id=":2153071096_2_0" index="0" allow="pedestrian delivery bicycle" speed="5.56" length="10.32" shape="854.45,440.16 856.62,437.91 858.10,436.37 859.66,434.91 862.05,432.92"/>
        <lane id=":2153071096_2_1" index="1" allow="pedestrian delivery bicycle" speed="5.56" length="10.32" shape="856.74,442.40 858.83,440.23 860.25,438.74 861.76,437.33 864.06,435.40"/>
    </edge>
    <edge id=":2263587097_0" function="internal">
        <lane id=":2263587097_0_0" index="0" allow="pedestrian delivery bicycle" speed="3.65" length="4.67" shape="884.45,293.14 885.56,292.23 886.44,292.08 887.09,292.69 887.51,294.08"/>
    </edge>
    <edge id=":2263587100_0" function="internal">
        <lane id=":2263587100_0_0" index="0" allow="pedestrian delivery bicycle" speed="5.56" length="5.06" shape="860.99,325.08 859.54,329.93"/>
    </edge>
    <edge id=":2263587100_1" function="internal">
        <lane id=":2263587100_1_0" index="0" allow="pedestrian delivery bicycle" speed="3.65" length="1.44" shape="860.99,325.08 859.87,325.98"/>
    </edge>
    <edge id=":2263587100_4" function="internal">
        <lane id=":2263587100_4_0" index="0" allow="pedestrian delivery bicycle" speed="3.65" length="3.23" shape="859.87,325.98 858.98,326.12 858.34,325.50 857.94,324.11"/>
    </edge>
    <edge id=":2263587100_2" function="internal">
        <lane id=":2263587100_2_0" index="0" allow="pedestrian delivery bicycle" speed="5.56" length="5.17" shape="856.46,329.06 857.94,324.11"/>
    </edge>
    <edge id=":2263587100_3" function="internal">
        <lane id=":2263587100_3_0" index="0" allow="pedestrian delivery bicycle" speed="3.65" length="1.44" shape="856.46,329.06 857.55,328.12"/>
    </edge>
    <edge id=":2263587100_5" function="internal">
        <lane id=":2263587100_5_0" index="0" allow="pedestrian delivery bicycle" speed="3.65" length="3.23" shape="857.55,328.12 858.43,327.95 859.09,328.55 859.54,329.93"/>
    </edge>
    <edge id=":2263587143_0" function="internal">
        <lane id=":2263587143_0_0" index="0" allow="pedestrian delivery bicycle" speed="5.56" length="1.73" shape="846.77,364.65 846.73,364.14 846.74,363.79 846.80,363.44 846.93,362.94"/>
    </edge>
    <edge id=":2263587143_1" function="internal">
        <lane id=":2263587143_1_0" index="0" allow="pedestrian delivery bicycle" speed="5.56" length="0.58" shape="850.01,363.81 849.97,363.97 849.95,364.09 849.94,364.21 849.96,364.38"/>
    </edge>
    <edge id=":2327573411_0" function="internal">
        <lane id=":2327573411_0_0" index="0" allow="pedestrian delivery bicycle" speed="3.65" length="4.67" shape="866.74,296.55 867.87,295.65 868.75,295.51 869.39,296.14 869.79,297.52"/>
    </edge>
    <edge id=":2327573413_0" function="internal">
        <lane id=":2327573413_0_0" index="0" allow="pedestrian delivery bicycle" speed="3.65" length="4.67" shape="899.80,297.68 900.92,296.76 901.80,296.61 902.45,297.23 902.86,298.61"/>
    </edge>
    <edge id=":2327573417_0" function="internal">
        <lane id=":2327573417_0_0" index="0" allow="pedestrian delivery bicycle" speed="5.56" length="5.02" shape="876.55,329.85 875.08,334.65"/>
    </edge>
    <edge id=":2327573417_1" function="internal">
        <lane id=":2327573417_1_0" index="0" allow="pedestrian delivery bicycle" speed="3.65" length="1.44" shape="876.55,329.85 875.43,330.76"/>
    </edge>
    <edge id=":2327573417_4" function="internal">
        <lane id=":2327573417_4_0" index="0" allow="pedestrian delivery bicycle" speed="3.65" length="3.23" shape="875.43,330.76 874.55,330.91 873.90,330.29 873.49,328.91"/>
    </edge>
    <edge id=":2327573417_2" function="internal">
        <lane id=":2327573417_2_0" index="0" allow="pedestrian delivery bicycle" speed="5.56" length="5.02" shape="872.02,333.71 873.49,328.91"/>
    </edge>
    <edge id=":2327573417_3" function="internal">
        <lane id=":2327573417_3_0" index="0" allow="pedestrian delivery bicycle" speed="3.65" length="1.44" shape="872.02,333.71 873.14,332.80"/>
    </edge>
    <edge id=":2327573417_5" function="internal">
        <lane id=":2327573417_5_0" index="0" allow="pedestrian delivery bicycle" speed="3.65" length="3.23" shape="873.14,332.80 874.02,332.65 874.67,333.27 875.08,334.65"/>
    </edge>
    <edge id=":2327573420_0" function="internal">
        <lane id=":2327573420_0_0" index="0" allow="pedestrian delivery bicycle" speed="5.56" length="5.04" shape="891.90,334.61 890.43,339.43"/>
    </edge>
    <edge id=":2327573420_1" function="internal">
        <lane id=":2327573420_1_0" index="0" allow="pedestrian delivery bicycle" speed="3.65" length="1.44" shape="891.90,334.61 890.79,335.52"/>
    </edge>
    <edge id=":2327573420_4" function="internal">
        <lane id=":2327573420_4_0" index="0" allow="pedestrian delivery bicycle" speed="3.65" length="3.23" shape="890.79,335.52 889.90,335.67 889.26,335.06 888.84,333.67"/>
    </edge>
    <edge id=":2327573420_2" function="internal">
        <lane id=":2327573420_2_0" index="0" allow="pedestrian delivery bicycle" speed="5.56" length="5.04" shape="887.37,338.50 888.84,333.67"/>
    </edge>
    <edge id=":2327573420_3" function="internal">
        <lane id=":2327573420_3_0" index="0" allow="pedestrian delivery bicycle" speed="3.65" length="1.44" shape="887.37,338.50 888.49,337.58"/>
    </edge>
    <edge id=":2327573420_5" function="internal">
        <lane id=":2327573420_5_0" index="0" allow="pedestrian delivery bicycle" speed="3.65" length="3.23" shape="888.49,337.58 889.37,337.43 890.02,338.05 890.43,339.43"/>
    </edge>
    <edge id=":2327573425_0" function="internal">
        <lane id=":2327573425_0_0" index="0" allow="pedestrian delivery bicycle" speed="5.56" length="11.82" shape="857.41,389.60 851.81,379.19"/>
    </edge>
    <edge id=":2327573425_1" function="internal">
        <lane id=":2327573425_1_0" index="0" allow="pedestrian delivery bicycle" speed="5.56" length="12.84" shape="857.41,389.60 856.45,386.46 856.66,383.53 857.57,380.55 858.71,377.23"/>
    </edge>
    <edge id=":2327573425_2" function="internal">
        <lane id=":2327573425_2_0" index="0" allow="pedestrian delivery bicycle" speed="3.65" length="4.67" shape="857.41,389.60 857.58,388.17 858.11,387.45 859.01,387.45 860.26,388.16"/>
    </edge>
    <edge id=":2327573425_3" function="internal">
        <lane id=":2327573425_3_0" index="0" allow="pedestrian delivery bicycle" speed="5.56" length="10.59" shape="861.77,378.17 860.60,381.12 859.62,383.28 859.34,385.38 860.26,388.16"/>
    </edge>
    <edge id=":2327573425_4" function="internal">
        <lane id=":2327573425_4_0" index="0" allow="pedestrian delivery bicycle" speed="5.56" length="16.03" shape="861.77,378.17 859.73,382.85 857.39,384.58 854.75,383.36 851.81,379.19"/>
    </edge>
    <edge id=":2327573425_5" function="internal">
        <lane id=":2327573425_5_0" index="0" allow="pedestrian delivery bicycle" speed="3.65" length="4.67" shape="861.77,378.17 860.65,379.08 859.77,379.23 859.12,378.61 858.71,377.23"/>
    </edge>
    <edge id=":2327573425_6" function="internal">
        <lane id=":2327573425_6_0" index="0" allow="pedestrian delivery bicycle" speed="4.67" length="6.59" shape="854.61,377.65 855.82,379.37 856.91,379.87 857.87,379.16 858.71,377.23"/>
    </edge>
    <edge id=":2327573425_7" function="internal">
        <lane id=":2327573425_7_0" index="0" allow="pedestrian delivery bicycle" speed="5.56" length="11.93" shape="854.61,377.65 860.26,388.16"/>
    </edge>
    <edge id=":2327573425_8" function="internal">
        <lane id=":2327573425_8_0" index="0" allow="pedestrian delivery bicycle" speed="3.65" length="4.67" shape="854.61,377.65 854.49,379.09 853.98,379.82 853.09,379.86 851.81,379.19"/>
    </edge>
    <edge id=":2327573427_0" function="internal">
        <lane id=":2327573427_0_0" index="0" allow="pedestrian delivery bicycle" speed="5.56" length="10.81" shape="873.63,404.72 870.71,403.68 868.61,402.74 866.62,401.57 864.03,399.86"/>
    </edge>
    <edge id=":2327573427_1" function="internal">
        <lane id=":2327573427_1_0" index="0" allow="pedestrian delivery bicycle" speed="5.56" length="11.01" shape="873.63,404.72 871.20,403.42 869.76,401.50 869.34,398.93 869.91,395.73"/>
    </edge>
    <edge id=":2327573427_2" function="internal">
        <lane id=":2327573427_2_0" index="0" allow="pedestrian delivery bicycle" speed="3.65" length="4.67" shape="873.63,404.72 872.74,403.58 872.61,402.69 873.25,402.06 874.64,401.68"/>
    </edge>
    <edge id=":2327573427_3" function="internal">
        <lane id=":2327573427_3_0" index="0" allow="pedestrian delivery bicycle" speed="5.47" length="5.95" shape="872.97,396.66 872.61,398.50 872.77,399.94 873.44,401.01 874.64,401.68"/>
    </edge>
    <edge id=":2327573427_4" function="internal">
        <lane id=":2327573427_4_0" index="0" allow="pedestrian delivery bicycle" speed="5.56" length="11.74" shape="872.97,396.66 871.54,399.71 869.58,401.26 867.07,401.31 864.03,399.86"/>
    </edge>
    <edge id=":2327573427_5" function="internal">
        <lane id=":2327573427_5_0" index="0" allow="pedestrian delivery bicycle" speed="3.65" length="4.67" shape="872.97,396.66 871.85,397.58 870.97,397.73 870.32,397.11 869.91,395.73"/>
    </edge>
    <edge id=":2327573427_6" function="internal">
        <lane id=":2327573427_6_0" index="0" allow="pedestrian delivery bicycle" speed="4.79" length="5.39" shape="865.81,397.20 867.20,397.86 868.35,397.84 869.25,397.13 869.91,395.73"/>
    </edge>
    <edge id=":2327573427_7" function="internal">
        <lane id=":2327573427_7_0" index="0" allow="pedestrian delivery bicycle" speed="5.56" length="9.96" shape="865.81,397.20 868.26,398.84 870.01,399.88 871.85,400.71 874.64,401.68"/>
    </edge>
    <edge id=":2327573427_8" function="internal">
        <lane id=":2327573427_8_0" index="0" allow="pedestrian delivery bicycle" speed="3.65" length="4.67" shape="865.81,397.20 866.36,398.53 866.25,399.42 865.48,399.86 864.03,399.86"/>
    </edge>
    <edge id=":2327573428_0" function="internal">
        <lane id=":2327573428_0_0" index="0" allow="pedestrian delivery bicycle" speed="3.65" length="4.67" shape="889.63,403.58 891.07,403.60 891.84,404.06 891.94,404.95 891.37,406.27"/>
    </edge>
    <edge id=":253343121_0" function="internal">
        <lane id=":253343121_0_0" index="0" allow="bicycle" speed="2.89" length="2.92" width="2.00" shape="443.30,832.20 442.58,832.74 442.03,832.82 441.64,832.42 441.41,831.54"/>
    </edge>
    <edge id=":253667000_0" function="internal">
        <lane id=":253667000_0_0" index="0" disallow="tram rail_urban rail rail_electric rail_fast ship container cable_car subway aircraft wheelchair scooter drone" speed="13.89" length="0.91" shape="787.94,417.77 787.81,418.17"/>
        <lane id=":253667000_0_1" index="1" disallow="tram rail_urban rail rail_electric rail_fast ship container cable_car subway aircraft wheelchair scooter drone" speed="9.55" length="0.91" shape="790.17,415.47 790.69,416.77"/>
    </edge>
    <edge id=":253667005_0" function="internal">
        <lane id=":253667005_0_0" index="0" disallow="tram rail_urban rail rail_electric rail_fast ship container cable_car subway aircraft wheelchair scooter drone" speed="13.89" length="21.20" shape="816.13,426.59 809.57,428.47 804.15,430.06 799.67,431.50 795.92,432.94"/>
    </edge>
    <edge id=":253667005_1" function="internal">
        <lane id=":253667005_1_0" index="0" disallow="tram rail_urban rail rail_electric rail_fast ship container cable_car subway aircraft wheelchair scooter drone" speed="13.89" length="18.12" shape="816.13,426.59 810.82,427.97 806.97,428.31 803.19,427.50 798.12,425.42"/>
        <lane id=":253667005_1_1" index="1" disallow="tram rail_urban rail rail_electric rail_fast ship container cable_car subway aircraft wheelchair scooter drone" speed="13.89" length="18.12" shape="815.25,423.51 810.27,424.75 806.67,424.94 803.14,424.05 798.39,422.04"/>
    </edge>
    <edge id=":253667007_0" function="internal">
        <lane id=":253667007_0_0" index="0" allow="pedestrian delivery bicycle" speed="9.72" length="11.34" shape="828.00,427.81 825.47,426.51 822.94,425.79 820.41,425.65 817.88,426.08"/>
        <lane id=":253667007_0_1" index="1" allow="pedestrian delivery bicycle" speed="9.72" length="11.34" shape="828.64,424.43 825.96,423.12 823.12,422.44 820.13,422.40 816.99,423.01"/>
    </edge>
    <edge id=":253667007_2" function="internal">
        <lane id=":253667007_2_0" index="0" disallow="tram rail_urban rail rail_electric rail_fast ship container cable_car subway aircraft wheelchair scooter drone" speed="13.89" length="11.02" shape="827.79,419.64 825.31,422.21 823.42,423.85 821.24,424.99 817.88,426.08"/>
        <lane id=":253667007_2_1" index="1" disallow="tram rail_urban rail rail_electric rail_fast ship container cable_car subway aircraft wheelchair scooter drone" speed="13.89" length="11.02" shape="825.21,417.70 823.16,419.83 821.59,421.17 819.78,422.10 816.99,423.01"/>
    </edge>
    <edge id=":253667011_0" function="internal">
        <lane id=":253667011_0_0" index="0" allow="pedestrian delivery bicycle" speed="9.72" length="8.77" shape="833.55,409.47 833.26,411.92 833.74,413.60 834.76,415.22 836.12,417.48"/>
        <lane id=":253667011_0_1" index="1" allow="pedestrian delivery bicycle" speed="9.72" length="9.86" shape="833.55,409.47 832.72,412.30 832.17,414.35 832.24,416.33 833.27,418.94"/>
    </edge>
    <edge id=":253667011_2" function="internal">
        <lane id=":253667011_2_0" index="0" disallow="tram rail_urban rail rail_electric rail_fast ship container cable_car subway aircraft wheelchair scooter drone" speed="13.89" length="10.49" shape="833.55,409.47 832.79,412.49 832.04,414.53 830.86,416.33 828.77,418.63"/>
        <lane id=":253667011_2_1" index="1" disallow="tram rail_urban rail rail_electric rail_fast ship container cable_car subway aircraft wheelchair scooter drone" speed="13.89" length="10.49" shape="830.44,408.71 829.63,411.66 828.77,413.61 827.47,415.32 825.35,417.56"/>
    </edge>
    <edge id=":253667028_0" function="internal">
        <lane id=":253667028_0_0" index="0" allow="pedestrian delivery bicycle" speed="8.00" length="5.60" shape="784.46,391.76 784.73,390.17 784.57,389.05 784.04,387.98 783.18,386.56"/>
    </edge>
    <edge id=":253667028_1" function="internal">
        <lane id=":253667028_1_0" index="0" disallow="tram rail_urban rail rail_electric rail_fast ship container cable_car subway aircraft wheelchair scooter drone" speed="13.89" length="5.46" shape="784.46,391.76 785.02,390.10 785.64,389.06 786.43,388.10 787.47,386.66"/>
        <lane id=":253667028_1_1" index="1" disallow="tram rail_urban rail rail_electric rail_fast ship container cable_car subway aircraft wheelchair scooter drone" speed="13.89" length="5.46" shape="787.57,392.54 788.04,391.19 788.59,390.35 789.27,389.58 790.16,388.40"/>
    </edge>
    <edge id=":253667766_0" function="internal">
        <lane id=":253667766_0_0" index="0" disallow="tram rail_urban rail rail_electric rail_fast ship container cable_car subway aircraft wheelchair scooter drone" speed="13.89" length="14.29" shape="787.72,417.99 785.71,414.06 784.36,411.31 783.47,408.44 782.84,404.11"/>
        <lane id=":253667766_0_1" index="1" disallow="tram rail_urban rail rail_electric rail_fast ship container cable_car subway aircraft wheelchair scooter drone" speed="13.89" length="14.29" shape="790.60,416.59 788.73,412.96 787.46,410.43 786.62,407.78 786.03,403.79"/>
    </edge>
    <edge id=":253667766_2" function="internal">
        <lane id=":253667766_2_0" index="0" disallow="tram rail_urban rail rail_electric rail_fast ship container cable_car subway aircraft wheelchair scooter drone" speed="13.89" length="16.41" shape="782.30,420.33 783.30,416.98 783.59,413.51 783.37,409.40 782.84,404.11"/>
    </edge>
    <edge id=":253667915_0" function="internal">
        <lane id=":253667915_0_0" index="0" disallow="tram rail_urban rail rail_electric rail_fast ship container cable_car subway aircraft wheelchair scooter drone" speed="13.89" length="13.98" shape="796.25,378.66 799.75,376.51 801.87,374.63 803.82,372.51 806.81,369.63"/>
        <lane id=":253667915_0_1" index="1" disallow="tram rail_urban rail rail_electric rail_fast ship container cable_car subway aircraft wheelchair scooter drone" speed="13.89" length="14.40" shape="796.25,378.66 800.13,376.86 802.93,375.85 805.56,374.58 808.93,372.03"/>
    </edge>
    <edge id=":253667915_2" function="internal">
        <lane id=":253667915_2_0" index="0" disallow="tram rail_urban rail rail_electric rail_fast ship container cable_car subway aircraft wheelchair scooter drone" speed="13.89" length="14.80" shape="796.25,378.66 800.23,376.69 803.20,375.81 806.33,375.68 810.80,375.96"/>
        <lane id=":253667915_2_1" index="1" disallow="tram rail_urban rail rail_electric rail_fast ship container cable_car subway aircraft wheelchair scooter drone" speed="13.89" length="14.80" shape="797.76,381.48 801.57,379.65 804.42,378.92 807.42,378.91 811.70,379.23"/>
    </edge>
    <edge id=":253668243_0" function="internal">
        <lane id=":253668243_0_0" index="0" disallow="tram rail_urban rail rail_electric rail_fast ship container cable_car subway aircraft wheelchair scooter drone" speed="13.89" length="16.75" shape="824.23,373.03 825.50,377.80 826.87,380.91 828.60,383.89 830.97,388.27"/>
        <lane id=":253668243_0_1" index="1" disallow="tram rail_urban rail rail_electric rail_fast ship container cable_car subway aircraft wheelchair scooter drone" speed="13.89" length="16.75" shape="821.28,374.52 822.56,379.28 823.96,382.36 825.73,385.32 828.11,389.69"/>
    </edge>
    <edge id=":253668243_2" function="internal">
        <lane id=":253668243_2_0" index="0" disallow="tram rail_urban rail rail_electric rail_fast ship container cable_car subway aircraft wheelchair scooter drone" speed="13.89" length="17.33" shape="817.59,377.37 822.47,379.45 825.80,381.23 828.37,383.80 830.97,388.27"/>
        <lane id=":253668243_2_1" index="1" disallow="tram rail_urban rail rail_electric rail_fast ship container cable_car subway aircraft wheelchair scooter drone" speed="13.89" length="17.33" shape="815.28,379.85 819.90,381.74 823.12,383.28 825.63,385.56 828.11,389.69"/>
    </edge>
    <edge id=":2816948165_0" function="internal">
        <lane id=":2816948165_0_0" index="0" disallow="tram rail_urban rail rail_electric rail_fast ship container cable_car subway aircraft wheelchair scooter drone" speed="3.65" length="4.67" shape="885.40,126.32 886.51,125.41 887.39,125.26 888.04,125.88 888.46,127.26"/>
    </edge>
    <edge id=":2816948168_0" function="internal">
        <lane id=":2816948168_0_0" index="0" disallow="tram rail_urban rail rail_electric rail_fast ship container cable_car subway aircraft wheelchair scooter drone" speed="13.20" length="8.38" shape="826.87,330.11 826.70,332.60 827.36,334.35 828.04,336.10 827.95,338.61"/>
        <lane id=":2816948168_0_1" index="1" disallow="tram rail_urban rail rail_electric rail_fast ship container cable_car subway aircraft wheelchair scooter drone" speed="13.20" length="8.38" shape="826.87,330.11 824.84,337.86"/>
    </edge>
    <edge id=":2816948168_2" function="internal">
        <lane id=":2816948168_2_0" index="0" disallow="tram rail_urban rail rail_electric rail_fast ship container cable_car subway aircraft wheelchair scooter drone" speed="13.20" length="8.89" shape="818.87,336.44 819.81,334.10 821.19,332.82 822.64,331.55 823.78,329.26"/>
    </edge>
    <edge id=":2816948197_0" function="internal">
        <lane id=":2816948197_0_0" index="0" allow="pedestrian delivery bicycle" speed="5.56" length="1.09" shape="851.74,490.91 851.26,490.97 850.92,490.98 850.59,490.95 850.11,490.85"/>
        <lane id=":2816948197_0_1" index="1" allow="pedestrian delivery bicycle" speed="5.56" length="1.09" shape="851.30,487.74 851.14,487.76 851.03,487.76 850.92,487.75 850.76,487.72"/>
    </edge>
    <edge id=":3726226344_0" function="internal">
        <lane id=":3726226344_0_0" index="0" allow="bicycle" speed="2.89" length="2.92" width="2.00" shape="659.62,0.04 660.09,-0.73 660.58,-1.00 661.09,-0.77 661.62,-0.04"/>
    </edge>
    <edge id=":3726226379_0" function="internal">
        <lane id=":3726226379_0_0" index="0" allow="bicycle" speed="5.56" length="5.36" width="2.00" shape="777.32,419.59 777.10,421.14 776.74,422.17 776.12,423.09 775.08,424.29"/>
    </edge>
    <edge id=":3726226379_1" function="internal">
        <lane id=":3726226379_1_0" index="0" allow="bicycle" speed="2.89" length="1.36" width="2.00" shape="777.32,419.59 776.75,420.28 776.32,420.44"/>
    </edge>
    <edge id=":3726226379_4" function="internal">
        <lane id=":3726226379_4_0" index="0" allow="bicycle" speed="2.89" length="1.56" width="2.00" shape="776.32,420.44 776.22,420.48 775.75,420.18 775.33,419.38"/>
    </edge>
    <edge id=":3726226379_2" function="internal">
        <lane id=":3726226379_2_0" index="0" allow="bicycle" speed="5.56" length="4.11" width="2.00" shape="773.58,422.96 774.38,422.05 774.87,421.35 775.16,420.56 775.33,419.38"/>
    </edge>
    <edge id=":3726226379_3" function="internal">
        <lane id=":3726226379_3_0" index="0" allow="bicycle" speed="2.89" length="1.25" width="2.00" shape="773.58,422.96 774.45,422.73 774.79,422.82"/>
    </edge>
    <edge id=":3726226379_5" function="internal">
        <lane id=":3726226379_5_0" index="0" allow="bicycle" speed="2.89" length="1.67" width="2.00" shape="774.79,422.82 774.99,422.87 775.20,423.39 775.08,424.29"/>
    </edge>
    <edge id=":3726226400_0" function="internal">
        <lane id=":3726226400_0_0" index="0" disallow="tram rail_urban rail rail_electric rail_fast ship container cable_car subway aircraft wheelchair scooter drone" speed="13.89" length="5.42" shape="809.49,366.71 812.09,361.96"/>
        <lane id=":3726226400_0_1" index="1" disallow="tram rail_urban rail rail_electric rail_fast ship container cable_car subway aircraft wheelchair scooter drone" speed="13.89" length="5.42" shape="812.29,368.25 814.90,363.49"/>
    </edge>
    <edge id=":3726226401_0" function="internal">
        <lane id=":3726226401_0_0" index="0" disallow="tram rail_urban rail rail_electric rail_fast ship container cable_car subway aircraft wheelchair scooter drone" speed="13.89" length="5.35" shape="823.49,364.73 823.43,366.32 823.33,367.41 823.33,368.50 823.58,370.05"/>
        <lane id=":3726226401_0_1" index="1" disallow="tram rail_urban rail rail_electric rail_fast ship container cable_car subway aircraft wheelchair scooter drone" speed="13.89" length="5.35" shape="820.29,364.75 820.22,366.34 820.10,367.44 820.09,368.52 820.33,370.08"/>
    </edge>
    <edge id=":4409539248_0" function="internal">
        <lane id=":4409539248_0_0" index="0" allow="pedestrian delivery bicycle" speed="5.56" length="6.42" shape="848.50,429.69 850.00,430.70 851.07,431.32 852.20,431.83 853.86,432.53"/>
        <lane id=":4409539248_0_1" index="1" allow="pedestrian delivery bicycle" speed="5.56" length="6.42" shape="846.67,432.31 848.32,433.44 849.51,434.13 850.76,434.70 852.61,435.48"/>
    </edge>
    <edge id=":6711101221_0" function="internal">
        <lane id=":6711101221_0_0" index="0" allow="pedestrian delivery bicycle" speed="5.56" length="12.00" shape="739.45,410.42 737.06,412.72 735.01,414.56 733.22,416.58 731.65,419.40"/>
    </edge>
    <edge id=":6711101221_1" function="internal">
        <lane id=":6711101221_1_0" index="0" allow="pedestrian delivery bicycle" speed="5.56" length="11.84" shape="736.33,408.53 731.65,419.40"/>
    </edge>
    <edge id=":6711101227_0" function="internal">
        <lane id=":6711101227_0_0" index="0" allow="pedestrian delivery bicycle" speed="5.56" length="9.19" shape="753.69,377.87 752.15,380.00 751.59,381.76 751.50,383.73 751.33,386.47"/>
    </edge>
    <edge id=":6711101227_1" function="internal">
        <lane id=":6711101227_1_0" index="0" allow="pedestrian delivery bicycle" speed="5.56" length="9.17" shape="753.69,377.87 747.77,384.88"/>
    </edge>
    <edge id=":6711118493_0" function="internal">
        <lane id=":6711118493_0_0" index="0" allow="pedestrian delivery bicycle" speed="5.56" length="12.29" shape="690.39,462.34 680.37,469.44"/>
    </edge>
    <edge id=":6711118493_1" function="internal">
        <lane id=":6711118493_1_0" index="0" allow="pedestrian delivery bicycle" speed="5.56" length="12.29" shape="687.79,459.74 685.98,462.57 684.50,465.00 682.80,467.23 680.37,469.44"/>
    </edge>
    <edge id=":6711118498_0" function="internal">
        <lane id=":6711118498_0_0" index="0" allow="pedestrian delivery bicycle" speed="5.56" length="10.71" shape="740.69,398.58 736.39,408.39"/>
    </edge>
    <edge id=":6711118498_1" function="internal">
        <lane id=":6711118498_1_0" index="0" allow="pedestrian delivery bicycle" speed="5.56" length="10.86" shape="740.69,398.58 739.07,401.17 737.39,402.75 735.51,404.20 733.30,406.40"/>
    </edge>
    <edge id=":6711118501_0" function="internal">
        <lane id=":6711118501_0_0" index="0" allow="pedestrian delivery bicycle" speed="5.30" length="5.10" shape="768.19,368.67 767.10,367.93 765.97,367.70 764.80,367.97 763.60,368.74"/>
    </edge>
    <edge id=":6711118501_1" function="internal">
        <lane id=":6711118501_1_0" index="0" allow="pedestrian delivery bicycle" speed="5.56" length="6.11" shape="768.19,368.67 763.85,364.36"/>
    </edge>
    <edge id=":6711118501_2" function="internal">
        <lane id=":6711118501_2_0" index="0" allow="pedestrian delivery bicycle" speed="3.65" length="4.67" shape="768.19,368.67 767.85,367.27 768.10,366.41 768.94,366.09 770.36,366.32"/>
    </edge>
    <edge id=":6711118501_3" function="internal">
        <lane id=":6711118501_3_0" index="0" allow="pedestrian delivery bicycle" speed="5.56" length="5.91" shape="766.16,362.16 770.36,366.32"/>
    </edge>
    <edge id=":6711118501_4" function="internal">
        <lane id=":6711118501_4_0" index="0" allow="pedestrian delivery bicycle" speed="5.56" length="7.94" shape="766.16,362.16 766.89,363.50 766.70,365.04 765.60,366.79 763.60,368.74"/>
    </edge>
    <edge id=":6711118501_5" function="internal">
        <lane id=":6711118501_5_0" index="0" allow="pedestrian delivery bicycle" speed="3.65" length="4.67" shape="766.16,362.16 766.41,363.58 766.11,364.42 765.25,364.68 763.85,364.36"/>
    </edge>
    <edge id=":6711118514_0" function="internal">
        <lane id=":6711118514_0_0" index="0" allow="pedestrian delivery bicycle" speed="5.56" length="6.11" shape="473.93,111.20 478.46,115.30"/>
    </edge>
    <edge id=":6711118514_1" function="internal">
        <lane id=":6711118514_1_0" index="0" allow="pedestrian delivery bicycle" speed="5.04" length="4.99" shape="474.09,115.63 475.12,114.73 476.19,114.38 477.31,114.57 478.46,115.30"/>
    </edge>
    <edge id=":6711118521_0" function="internal">
        <lane id=":6711118521_0_0" index="0" allow="pedestrian delivery bicycle" speed="5.56" length="3.68" shape="762.46,362.91 761.69,362.14 761.10,361.67 760.46,361.28 759.50,360.76"/>
    </edge>
    <edge id=":6711118521_1" function="internal">
        <lane id=":6711118521_1_0" index="0" allow="pedestrian delivery bicycle" speed="3.65" length="4.67" shape="762.46,362.91 762.21,361.48 762.51,360.64 763.37,360.38 764.77,360.70"/>
    </edge>
    <edge id=":6711118521_2" function="internal">
        <lane id=":6711118521_2_0" index="0" allow="pedestrian delivery bicycle" speed="5.56" length="4.41" shape="762.02,357.27 762.75,358.36 763.28,359.08 763.87,359.75 764.77,360.70"/>
    </edge>
    <edge id=":6711118521_3" function="internal">