<?xml version="1.0" encoding="UTF-8"?>

<!-- generated on 2024-09-03 01:37:11 by Eclipse SUMO duarouter Version 1.20.0
<configuration xmlns:xsi="http://www.w3.org/2001/XMLSchema-instance" xsi:noNamespaceSchemaLocation="http://sumo.dlr.de/xsd/duarouterConfiguration.xsd">

    <input>
        <net-file value="train_files/intersection/easy/outputs/map(82)_dict/map(82)/map(82).net.xml"/>
        <route-files value="train_files/intersection/easy/outputs/map(82)_dict/map(82)/map(82).trips.xml"/>
    </input>

    <output>
        <output-file value="train_files/intersection/easy/outputs/map(82)_dict/map(82)/map(82).rou.xml"/>
    </output>

    <report>
        <ignore-errors value="true"/>
    </report>

</configuration>
-->

<routes xmlns:xsi="http://www.w3.org/2001/XMLSchema-instance" xsi:noNamespaceSchemaLocation="http://sumo.dlr.de/xsd/routes_file.xsd">
    <vehicle id="0" depart="0.00">
        <route edges="253335412 700141109 -700141109 -253335412"/>
    </vehicle>
    <vehicle id="1" depart="3.60">
        <route edges="-603708716 -603708718 -28444031"/>
    </vehicle>
    <vehicle id="2" depart="7.20">
        <route edges="28444031 603708718 603708716"/>
    </vehicle>
    <vehicle id="3" depart="10.80">
        <route edges="568424672 246136193#0 246136193#1 -700141109 -253335412"/>
    </vehicle>
    <vehicle id="4" depart="14.40">
        <route edges="-8099278#1 -8099278#0 -568424679#2 -568424679#1 -568424679#0 -27521528 -568424676#1 -568424676#0 -700141109 -253335412"/>
    </vehicle>
    <vehicle id="7" depart="25.20">
        <route edges="253335412 700141109 568424676#0 568424676#1 27521528 568424678#0 568424678#1 568424678#2 568424675"/>
    </vehicle>
    <vehicle id="10" depart="36.00">
        <route edges="28444031 603708718 603708716"/>
    </vehicle>
    <vehicle id="11" depart="39.60">
        <route edges="-8099278#1 -8099278#0 -568424679#2 -568424679#1 -568424679#0 -27521528 -568424676#1 -568424676#0 -700141109 -253335412"/>
    </vehicle>
    <vehicle id="12" depart="43.20">
        <route edges="568424672 -568424672"/>
    </vehicle>
    <vehicle id="13" depart="46.80">
        <route edges="-568424675 -568424678#2 -568424678#1 -568424678#0 -27521528 -568424676#1 -568424676#0 -700141109 -253335412"/>
    </vehicle>
    <vehicle id="14" depart="50.40">
        <route edges="568424672 568424674#0 568424674#1 568424674#2 568424678#0 568424678#1 568424678#2 568424675"/>
    </vehicle>
    <vehicle id="15" depart="54.00">
        <route edges="28444031 603708718 603708716"/>
    </vehicle>
    <vehicle id="16" depart="57.60">
        <route edges="253335412 700141109 568424676#0 568424676#1 27521528 568424679#0 568424679#1 568424679#2 8099278#0 8099278#1"/>
    </vehicle>
    <vehicle id="17" depart="61.20">
        <route edges="-8099278#1 -8099278#0 -568424679#2 -568424679#1 -568424679#0 568424678#0 568424678#1 568424678#2 568424675"/>
    </vehicle>
    <vehicle id="19" depart="68.40">
        <route edges="568424672 568424674#0 568424674#1 568424674#2 568424678#0 568424678#1 568424678#2 568424675"/>
    </vehicle>
    <vehicle id="21" depart="75.60">
        <route edges="-603708716 -603708718 -28444031"/>
    </vehicle>
    <vehicle id="24" depart="86.40">
        <route edges="253335412 700141109 568424676#0 568424676#1 27521528 -568424674#2 -568424674#1 -568424674#0 -568424672"/>
    </vehicle>
    <vehicle id="27" depart="97.20">
        <route edges="253335412 700141109 568424676#0 568424676#1 27521528 568424678#0 568424678#1 568424678#2 568424675"/>
    </vehicle>
    <vehicle id="28" depart="100.80">
        <route edges="-603708716 -603708718 -28444031 28444031 603708718 603708716"/>
    </vehicle>
    <vehicle id="29" depart="104.40">
        <route edges="-568424675 -568424678#2 -568424678#1 -568424678#0 -568424674#2 -568424674#1 -568424674#0 -568424672"/>
    </vehicle>
    <vehicle id="30" depart="108.00">
        <route edges="568424672 568424674#0 568424674#1 568424674#2 568424678#0 568424678#1 568424678#2 568424675"/>
    </vehicle>
    <vehicle id="34" depart="122.40">
        <route edges="-603708716 -603708718 -28444031"/>
    </vehicle>
    <vehicle id="37" depart="133.20">
        <route edges="253335412 700141109 568424676#0 568424676#1 27521528 -568424674#2 -568424674#1 -568424674#0 -568424672"/>
    </vehicle>
    <vehicle id="38" depart="136.80">
        <route edges="568424672 -568424672"/>
    </vehicle>
    <vehicle id="39" depart="140.40">
        <route edges="-603708716 -603708718 -28444031"/>
    </vehicle>
    <vehicle id="41" depart="147.60">
        <route edges="253335412 700141109 568424676#0 568424676#1 27521528 568424679#0 568424679#1 568424679#2 8099278#0 8099278#1"/>
    </vehicle>
    <vehicle id="43" depart="154.80">
        <route edges="568424672 568424674#0 568424674#1 568424674#2 568424678#0 568424678#1 568424678#2 568424675"/>
    </vehicle>
    <vehicle id="44" depart="158.40">
        <route edges="-568424675 -568424678#2 -568424678#1 -568424678#0 -27521528 -568424676#1 -568424676#0 -700141109 -253335412"/>
    </vehicle>
    <vehicle id="45" depart="162.00">
        <route edges="-568424675 568424675"/>
    </vehicle>
    <vehicle id="47" depart="169.20">
        <route edges="-568424675 -568424678#2 -568424678#1 -568424678#0 -568424674#2 -568424674#1 -568424674#0 -568424672"/>
    </vehicle>
    <vehicle id="48" depart="172.80">
        <route edges="568424672 568424674#0 568424674#1 568424674#2 568424678#0 568424678#1 568424678#2 568424675"/>
    </vehicle>
    <vehicle id="49" depart="176.40">
        <route edges="568424672 568424674#0 568424674#1 568424674#2 568424679#0 568424679#1 568424679#2 8099278#0 8099278#1"/>
    </vehicle>
    <vehicle id="53" depart="190.80">
        <route edges="-568424675 -568424678#2 -568424678#1 -568424678#0 -568424674#2 -568424674#1 -568424674#0 -568424672"/>
    </vehicle>
    <vehicle id="54" depart="194.40">
        <route edges="-8099278#1 -8099278#0 8099278#0 8099278#1"/>
    </vehicle>
    <vehicle id="57" depart="205.20">
        <route edges="568424672 568424674#0 568424674#1 568424674#2 568424679#0 568424679#1 568424679#2 8099278#0 8099278#1"/>
    </vehicle>
    <vehicle id="59" depart="212.40">
        <route edges="253335412 700141109 -700141109 -253335412"/>
    </vehicle>
    <vehicle id="63" depart="226.80">
        <route edges="-568424675 246136194#0 246136194#1 8099278#0 8099278#1"/>
    </vehicle>
    <vehicle id="66" depart="237.60">
        <route edges="568424672 568424674#0 568424674#1 568424674#2 568424679#0 568424679#1 568424679#2 8099278#0 8099278#1"/>
    </vehicle>
    <vehicle id="67" depart="241.20">
        <route edges="-568424675 -568424678#2 -568424678#1 -568424678#0 -568424674#2 -568424674#1 -568424674#0 -568424672"/>
    </vehicle>
    <vehicle id="70" depart="252.00">
        <route edges="-8099278#1 -8099278#0 -568424679#2 -568424679#1 -568424679#0 568424678#0 568424678#1 568424678#2 568424675"/>
    </vehicle>
    <vehicle id="74" depart="266.40">
        <route edges="-603708716 -603708718 -28444031"/>
    </vehicle>
    <vehicle id="75" depart="270.00">
        <route edges="568424672 568424674#0 568424674#1 568424674#2 568424678#0 568424678#1 568424678#2 568424675"/>
    </vehicle>
    <vehicle id="76" depart="273.60">
        <route edges="-8099278#1 -8099278#0 -568424679#2 -568424679#1 -568424679#0 568424678#0 568424678#1 568424678#2 568424675"/>
    </vehicle>
    <vehicle id="78" depart="280.80">
        <route edges="-8099278#1 -8099278#0 -568424679#2 -568424679#1 -568424679#0 568424678#0 568424678#1 568424678#2 568424675"/>
    </vehicle>
    <vehicle id="79" depart="284.40">
        <route edges="-603708716 -603708718 -28444031"/>
    </vehicle>
    <vehicle id="80" depart="288.00">
        <route edges="-568424675 568424675"/>
    </vehicle>
    <vehicle id="82" depart="295.20">
        <route edges="568424672 246136193#0 246136193#1 -700141109 -253335412"/>
    </vehicle>
    <vehicle id="83" depart="298.80">
        <route edges="-603708716 -603708718 -28444031 28444031 603708718 603708716"/>
    </vehicle>
    <vehicle id="85" depart="306.00">
        <route edges="568424672 568424674#0 568424674#1 568424674#2 568424678#0 568424678#1 568424678#2 568424675"/>
    </vehicle>
    <vehicle id="87" depart="313.20">
        <route edges="28444031 603708718 603708716 -603708716 -603708718 -28444031"/>
    </vehicle>
    <vehicle id="88" depart="316.80">
        <route edges="-568424675 -568424678#2 -568424678#1 -568424678#0 -568424674#2 -568424674#1 -568424674#0 -568424672"/>
    </vehicle>
    <vehicle id="89" depart="320.40">
        <route edges="-8099278#1 -8099278#0 -568424679#2 -568424679#1 -568424679#0 -568424674#2 -568424674#1 -568424674#0 -568424672"/>
    </vehicle>
    <vehicle id="90" depart="324.00">
        <route edges="28444031 603708718 603708716"/>
    </vehicle>
    <vehicle id="91" depart="327.60">
        <route edges="568424672 246136193#0 246136193#1 -700141109 -253335412"/>
    </vehicle>
    <vehicle id="92" depart="331.20">
        <route edges="-8099278#1 -8099278#0 -568424679#2 -568424679#1 -568424679#0 -568424674#2 -568424674#1 -568424674#0 -568424672"/>
    </vehicle>
    <vehicle id="97" depart="349.20">
        <route edges="-8099278#1 -8099278#0 8099278#0 8099278#1"/>
    </vehicle>
    <vehicle id="98" depart="352.80">
        <route edges="253335412 700141109 -700141109 -253335412"/>
    </vehicle>
    <vehicle id="99" depart="356.40">
        <route edges="568424672 568424674#0 568424674#1 568424674#2 568424679#0 568424679#1 568424679#2 8099278#0 8099278#1"/>
    </vehicle>
    <vehicle id="100" depart="360.00">
        <route edges="568424672 568424674#0 568424674#1 568424674#2 568424679#0 568424679#1 568424679#2 8099278#0 8099278#1"/>
    </vehicle>
    <vehicle id="101" depart="363.60">
        <route edges="568424672 246136193#0 246136193#1 -700141109 -253335412"/>
    </vehicle>
    <vehicle id="103" depart="370.80">
        <route edges="-8099278#1 -8099278#0 -568424679#2 -568424679#1 -568424679#0 -27521528 -568424676#1 -568424676#0 -700141109 -253335412"/>
    </vehicle>
    <vehicle id="104" depart="374.40">
        <route edges="-8099278#1 -8099278#0 8099278#0 8099278#1"/>
    </vehicle>
    <vehicle id="105" depart="378.00">
        <route edges="-603708716 -603708718 -28444031 28444031 603708718 603708716"/>
    </vehicle>
    <vehicle id="106" depart="381.60">
        <route edges="-8099278#1 -8099278#0 -568424679#2 -568424679#1 -568424679#0 -568424674#2 -568424674#1 -568424674#0 -568424672"/>
    </vehicle>
    <vehicle id="107" depart="385.20">
        <route edges="568424672 568424674#0 568424674#1 568424674#2 568424679#0 568424679#1 568424679#2 8099278#0 8099278#1"/>
    </vehicle>
    <vehicle id="110" depart="396.00">
        <route edges="568424672 568424674#0 568424674#1 568424674#2 568424678#0 568424678#1 568424678#2 568424675"/>
    </vehicle>
    <vehicle id="112" depart="403.20">
        <route edges="-568424675 568424675"/>
    </vehicle>
    <vehicle id="113" depart="406.80">
        <route edges="253335412 700141109 568424676#0 568424676#1 27521528 568424679#0 568424679#1 568424679#2 8099278#0 8099278#1"/>
    </vehicle>
    <vehicle id="114" depart="410.40">
        <route edges="-568424675 246136194#0 246136194#1 8099278#0 8099278#1"/>
    </vehicle>
    <vehicle id="119" depart="428.40">
        <route edges="253335412 700141109 568424676#0 568424676#1 27521528 568424678#0 568424678#1 568424678#2 568424675"/>
    </vehicle>
    <vehicle id="120" depart="432.00">
        <route edges="-8099278#1 -8099278#0 -568424679#2 -568424679#1 -568424679#0 568424678#0 568424678#1 568424678#2 568424675"/>
    </vehicle>
    <vehicle id="121" depart="435.60">
        <route edges="253335412 700141109 568424676#0 568424676#1 27521528 568424679#0 568424679#1 568424679#2 8099278#0 8099278#1"/>
    </vehicle>
    <vehicle id="122" depart="439.20">
        <route edges="-603708716 -603708718 -28444031 28444031 603708718 603708716"/>
    </vehicle>
    <vehicle id="124" depart="446.40">
        <route edges="28444031 603708718 603708716 -603708716 -603708718 -28444031"/>
    </vehicle>
    <vehicle id="125" depart="450.00">
        <route edges="-603708716 -603708718 -28444031 28444031 603708718 603708716"/>
    </vehicle>
    <vehicle id="126" depart="453.60">
        <route edges="-568424675 -568424678#2 -568424678#1 -568424678#0 -568424674#2 -568424674#1 -568424674#0 -568424672"/>
    </vehicle>
    <vehicle id="127" depart="457.20">
        <route edges="568424672 568424674#0 568424674#1 568424674#2 568424679#0 568424679#1 568424679#2 8099278#0 8099278#1"/>
    </vehicle>
    <vehicle id="130" depart="468.00">
        <route edges="568424672 568424674#0 568424674#1 568424674#2 568424679#0 568424679#1 568424679#2 8099278#0 8099278#1"/>
    </vehicle>
    <vehicle id="131" depart="471.60">
        <route edges="-8099278#1 -8099278#0 -568424679#2 -568424679#1 -568424679#0 -27521528 -568424676#1 -568424676#0 -700141109 -253335412"/>
    </vehicle>
    <vehicle id="133" depart="478.80">
        <route edges="253335412 700141109 568424676#0 568424676#1 27521528 568424679#0 568424679#1 568424679#2 8099278#0 8099278#1"/>
    </vehicle>
    <vehicle id="134" depart="482.40">
        <route edges="253335412 700141109 -700141109 -253335412"/>
    </vehicle>
    <vehicle id="135" depart="486.00">
        <route edges="28444031 603708718 603708716 -603708716 -603708718 -28444031"/>
    </vehicle>
    <vehicle id="136" depart="489.60">
        <route edges="253335412 700141109 568424676#0 568424676#1 27521528 568424679#0 568424679#1 568424679#2 8099278#0 8099278#1"/>
    </vehicle>
    <vehicle id="137" depart="493.20">
        <route edges="-568424675 -568424678#2 -568424678#1 -568424678#0 -27521528 -568424676#1 -568424676#0 -700141109 -253335412"/>
    </vehicle>
    <vehicle id="138" depart="496.80">
        <route edges="-568424675 568424675"/>
    </vehicle>
    <vehicle id="140" depart="504.00">
        <route edges="28444031 603708718 603708716 -603708716 -603708718 -28444031"/>
    </vehicle>
    <vehicle id="142" depart="511.20">
        <route edges="-8099278#1 -8099278#0 8099278#0 8099278#1"/>
    </vehicle>
    <vehicle id="143" depart="514.80">
        <route edges="568424672 246136193#0 246136193#1 -700141109 -253335412"/>
    </vehicle>
    <vehicle id="148" depart="532.80">
        <route edges="-8099278#1 -8099278#0 -568424679#2 -568424679#1 -568424679#0 -27521528 -568424676#1 -568424676#0 -700141109 -253335412"/>
    </vehicle>
    <vehicle id="149" depart="536.40">
        <route edges="-568424675 246136194#0 246136194#1 8099278#0 8099278#1"/>
    </vehicle>
    <vehicle id="150" depart="540.00">
        <route edges="568424672 568424674#0 568424674#1 568424674#2 568424678#0 568424678#1 568424678#2 568424675"/>
    </vehicle>
    <vehicle id="151" depart="543.60">
        <route edges="568424672 568424674#0 568424674#1 568424674#2 568424678#0 568424678#1 568424678#2 568424675"/>
    </vehicle>
    <vehicle id="152" depart="547.20">
        <route edges="-568424675 -568424678#2 -568424678#1 -568424678#0 -27521528 -568424676#1 -568424676#0 -700141109 -253335412"/>
    </vehicle>
    <vehicle id="158" depart="568.80">
        <route edges="-8099278#1 -8099278#0 -568424679#2 -568424679#1 -568424679#0 568424678#0 568424678#1 568424678#2 568424675"/>
    </vehicle>
    <vehicle id="159" depart="572.40">
        <route edges="-568424675 246136194#0 246136194#1 8099278#0 8099278#1"/>
    </vehicle>
    <vehicle id="160" depart="576.00">
        <route edges="568424672 568424674#0 568424674#1 568424674#2 568424679#0 568424679#1 568424679#2 8099278#0 8099278#1"/>
    </vehicle>
    <vehicle id="165" depart="594.00">
        <route edges="28444031 603708718 603708716 -603708716 -603708718 -28444031"/>
    </vehicle>
    <vehicle id="167" depart="601.20">
        <route edges="568424672 568424674#0 568424674#1 568424674#2 568424679#0 568424679#1 568424679#2 8099278#0 8099278#1"/>
    </vehicle>
    <vehicle id="168" depart="604.80">
        <route edges="-603708716 -603708718 -28444031 28444031 603708718 603708716"/>
    </vehicle>
    <vehicle id="170" depart="612.00">
        <route edges="28444031 603708718 603708716 -603708716 -603708718 -28444031"/>
    </vehicle>
    <vehicle id="174" depart="626.40">
        <route edges="253335412 700141109 568424676#0 568424676#1 27521528 -568424674#2 -568424674#1 -568424674#0 -568424672"/>
    </vehicle>
    <vehicle id="175" depart="630.00">
        <route edges="568424672 568424674#0 568424674#1 568424674#2 568424678#0 568424678#1 568424678#2 568424675"/>
    </vehicle>
    <vehicle id="176" depart="633.60">
        <route edges="568424672 246136193#0 246136193#1 -700141109 -253335412"/>
    </vehicle>
    <vehicle id="179" depart="644.40">
        <route edges="-568424675 -568424678#2 -568424678#1 -568424678#0 -568424674#2 -568424674#1 -568424674#0 -568424672"/>
    </vehicle>
    <vehicle id="180" depart="648.00">
        <route edges="28444031 603708718 603708716 -603708716 -603708718 -28444031"/>
    </vehicle>
    <vehicle id="181" depart="651.60">
        <route edges="253335412 700141109 568424676#0 568424676#1 27521528 568424678#0 568424678#1 568424678#2 568424675"/>
    </vehicle>
    <vehicle id="182" depart="655.20">
        <route edges="-8099278#1 -8099278#0 -568424679#2 -568424679#1 -568424679#0 568424678#0 568424678#1 568424678#2 568424675"/>
    </vehicle>
    <vehicle id="183" depart="658.80">
        <route edges="-603708716 -603708718 -28444031 28444031 603708718 603708716"/>
    </vehicle>
    <vehicle id="184" depart="662.40">
        <route edges="-568424675 246136194#0 246136194#1 8099278#0 8099278#1"/>
    </vehicle>
    <vehicle id="186" depart="669.60">
        <route edges="28444031 603708718 603708716"/>
    </vehicle>
    <vehicle id="187" depart="673.20">
        <route edges="-8099278#1 -8099278#0 -568424679#2 -568424679#1 -568424679#0 -27521528 -568424676#1 -568424676#0 -700141109 -253335412"/>
    </vehicle>
    <vehicle id="190" depart="684.00">
        <route edges="28444031 603708718 603708716 -603708716 -603708718 -28444031"/>
    </vehicle>
    <vehicle id="193" depart="694.80">
        <route edges="-568424675 -568424678#2 -568424678#1 -568424678#0 -568424674#2 -568424674#1 -568424674#0 -568424672"/>
    </vehicle>
    <vehicle id="195" depart="702.00">
        <route edges="568424672 568424674#0 568424674#1 568424674#2 568424678#0 568424678#1 568424678#2 568424675"/>
    </vehicle>
    <vehicle id="198" depart="712.80">
        <route edges="-8099278#1 -8099278#0 -568424679#2 -568424679#1 -568424679#0 568424678#0 568424678#1 568424678#2 568424675"/>
    </vehicle>
    <vehicle id="199" depart="716.40">
        <route edges="253335412 700141109 568424676#0 568424676#1 27521528 -568424674#2 -568424674#1 -568424674#0 -568424672"/>
    </vehicle>
    <vehicle id="201" depart="723.60">
        <route edges="-8099278#1 -8099278#0 8099278#0 8099278#1"/>
    </vehicle>
    <vehicle id="202" depart="727.20">
        <route edges="28444031 603708718 603708716 -603708716 -603708718 -28444031"/>
    </vehicle>
    <vehicle id="203" depart="730.80">
        <route edges="-568424675 568424675"/>
    </vehicle>
    <vehicle id="204" depart="734.40">
        <route edges="253335412 700141109 568424676#0 568424676#1 27521528 -568424674#2 -568424674#1 -568424674#0 -568424672"/>
    </vehicle>
    <vehicle id="205" depart="738.00">
        <route edges="28444031 603708718 603708716"/>
    </vehicle>
    <vehicle id="206" depart="741.60">
        <route edges="28444031 603708718 603708716 -603708716 -603708718 -28444031"/>
    </vehicle>
    <vehicle id="209" depart="752.40">
        <route edges="568424672 246136193#0 246136193#1 -700141109 -253335412"/>
    </vehicle>
    <vehicle id="210" depart="756.00">
        <route edges="-8099278#1 -8099278#0 -568424679#2 -568424679#1 -568424679#0 568424678#0 568424678#1 568424678#2 568424675"/>
    </vehicle>
    <vehicle id="211" depart="759.60">
        <route edges="-603708716 -603708718 -28444031 28444031 603708718 603708716"/>
    </vehicle>
    <vehicle id="213" depart="766.80">
        <route edges="253335412 700141109 -700141109 -253335412"/>
    </vehicle>
    <vehicle id="214" depart="770.40">
        <route edges="28444031 603708718 603708716"/>
    </vehicle>
    <vehicle id="215" depart="774.00">
        <route edges="-568424675 -568424678#2 -568424678#1 -568424678#0 -568424674#2 -568424674#1 -568424674#0 -568424672"/>
    </vehicle>
    <vehicle id="217" depart="781.20">
        <route edges="253335412 700141109 -700141109 -253335412"/>
    </vehicle>
    <vehicle id="221" depart="795.60">
        <route edges="253335412 700141109 568424676#0 568424676#1 27521528 568424679#0 568424679#1 568424679#2 8099278#0 8099278#1"/>
    </vehicle>
    <vehicle id="222" depart="799.20">
        <route edges="568424672 568424674#0 568424674#1 568424674#2 568424678#0 568424678#1 568424678#2 568424675"/>
    </vehicle>
    <vehicle id="231" depart="831.60">
        <route edges="-603708716 -603708718 -28444031"/>
    </vehicle>
    <vehicle id="232" depart="835.20">
        <route edges="253335412 700141109 -700141109 -253335412"/>
    </vehicle>
    <vehicle id="233" depart="838.80">
        <route edges="-603708716 -603708718 -28444031 28444031 603708718 603708716"/>
    </vehicle>
    <vehicle id="235" depart="846.00">
        <route edges="-8099278#1 -8099278#0 -568424679#2 -568424679#1 -568424679#0 568424678#0 568424678#1 568424678#2 568424675"/>
    </vehicle>
    <vehicle id="237" depart="853.20">
        <route edges="-8099278#1 -8099278#0 8099278#0 8099278#1"/>
    </vehicle>
    <vehicle id="240" depart="864.00">
        <route edges="-8099278#1 -8099278#0 -568424679#2 -568424679#1 -568424679#0 -27521528 -568424676#1 -568424676#0 -700141109 -253335412"/>
    </vehicle>
    <vehicle id="242" depart="871.20">
        <route edges="568424672 568424674#0 568424674#1 568424674#2 568424679#0 568424679#1 568424679#2 8099278#0 8099278#1"/>
    </vehicle>
    <vehicle id="244" depart="878.40">
        <route edges="253335412 700141109 568424676#0 568424676#1 27521528 568424678#0 568424678#1 568424678#2 568424675"/>
    </vehicle>
    <vehicle id="245" depart="882.00">
        <route edges="-603708716 -603708718 -28444031"/>
    </vehicle>
    <vehicle id="246" depart="885.60">
        <route edges="-8099278#1 -8099278#0 -568424679#2 -568424679#1 -568424679#0 -27521528 -568424676#1 -568424676#0 -700141109 -253335412"/>
    </vehicle>
    <vehicle id="248" depart="892.80">
        <route edges="-8099278#1 -8099278#0 -568424679#2 -568424679#1 -568424679#0 -27521528 -568424676#1 -568424676#0 -700141109 -253335412"/>
    </vehicle>
    <vehicle id="249" depart="896.40">
        <route edges="-8099278#1 -8099278#0 -568424679#2 -568424679#1 -568424679#0 -27521528 -568424676#1 -568424676#0 -700141109 -253335412"/>
    </vehicle>
    <vehicle id="250" depart="900.00">
        <route edges="253335412 700141109 -700141109 -253335412"/>
    </vehicle>
    <vehicle id="251" depart="903.60">
        <route edges="-8099278#1 -8099278#0 -568424679#2 -568424679#1 -568424679#0 568424678#0 568424678#1 568424678#2 568424675"/>
    </vehicle>
    <vehicle id="252" depart="907.20">
        <route edges="-568424675 568424675"/>
    </vehicle>
    <vehicle id="253" depart="910.80">
        <route edges="-568424675 -568424678#2 -568424678#1 -568424678#0 -568424674#2 -568424674#1 -568424674#0 -568424672"/>
    </vehicle>
    <vehicle id="254" depart="914.40">
        <route edges="-568424675 -568424678#2 -568424678#1 -568424678#0 -568424674#2 -568424674#1 -568424674#0 -568424672"/>
    </vehicle>
    <vehicle id="255" depart="918.00">
        <route edges="-603708716 -603708718 -28444031"/>
    </vehicle>
    <vehicle id="257" depart="925.20">
        <route edges="28444031 603708718 603708716"/>
    </vehicle>
    <vehicle id="259" depart="932.40">
        <route edges="-568424675 568424675"/>
    </vehicle>
    <vehicle id="260" depart="936.00">
        <route edges="568424672 -568424672"/>
    </vehicle>
    <vehicle id="264" depart="950.40">
        <route edges="-568424675 -568424678#2 -568424678#1 -568424678#0 -27521528 -568424676#1 -568424676#0 -700141109 -253335412"/>
    </vehicle>
    <vehicle id="267" depart="961.20">
        <route edges="28444031 603708718 603708716"/>
    </vehicle>
    <vehicle id="271" depart="975.60">
        <route edges="-568424675 -568424678#2 -568424678#1 -568424678#0 -27521528 -568424676#1 -568424676#0 -700141109 -253335412"/>
    </vehicle>
    <vehicle id="272" depart="979.20">
        <route edges="-603708716 -603708718 -28444031 28444031 603708718 603708716"/>
    </vehicle>
    <vehicle id="273" depart="982.80">
        <route edges="568424672 -568424672"/>
    </vehicle>
    <vehicle id="277" depart="997.20">
        <route edges="568424672 568424674#0 568424674#1 568424674#2 568424678#0 568424678#1 568424678#2 568424675"/>
    </vehicle>
    <vehicle id="278" depart="1000.80">
        <route edges="-568424675 246136194#0 246136194#1 8099278#0 8099278#1"/>
    </vehicle>
    <vehicle id="280" depart="1008.00">
        <route edges="-8099278#1 -8099278#0 -568424679#2 -568424679#1 -568424679#0 -568424674#2 -568424674#1 -568424674#0 -568424672"/>
    </vehicle>
    <vehicle id="281" depart="1011.60">
        <route edges="253335412 700141109 568424676#0 568424676#1 27521528 -568424674#2 -568424674#1 -568424674#0 -568424672"/>
    </vehicle>
    <vehicle id="283" depart="1018.80">
        <route edges="-568424675 246136194#0 246136194#1 8099278#0 8099278#1"/>
    </vehicle>
    <vehicle id="287" depart="1033.20">
        <route edges="-603708716 -603708718 -28444031 28444031 603708718 603708716"/>
    </vehicle>
    <vehicle id="288" depart="1036.80">
        <route edges="253335412 700141109 568424676#0 568424676#1 27521528 -568424674#2 -568424674#1 -568424674#0 -568424672"/>
    </vehicle>
    <vehicle id="293" depart="1054.80">
        <route edges="-8099278#1 -8099278#0 -568424679#2 -568424679#1 -568424679#0 568424678#0 568424678#1 568424678#2 568424675"/>
    </vehicle>
    <vehicle id="294" depart="1058.40">
        <route edges="-8099278#1 -8099278#0 -568424679#2 -568424679#1 -568424679#0 -27521528 -568424676#1 -568424676#0 -700141109 -253335412"/>
    </vehicle>
    <vehicle id="296" depart="1065.60">
        <route edges="-603708716 -603708718 -28444031 28444031 603708718 603708716"/>
    </vehicle>
    <vehicle id="297" depart="1069.20">
        <route edges="-8099278#1 -8099278#0 8099278#0 8099278#1"/>
    </vehicle>
    <vehicle id="298" depart="1072.80">
        <route edges="28444031 603708718 603708716 -603708716 -603708718 -28444031"/>
    </vehicle>
    <vehicle id="299" depart="1076.40">
        <route edges="-568424675 246136194#0 246136194#1 8099278#0 8099278#1"/>
    </vehicle>
    <vehicle id="305" depart="1098.00">
        <route edges="28444031 603708718 603708716 -603708716 -603708718 -28444031"/>
    </vehicle>
    <vehicle id="306" depart="1101.60">
        <route edges="253335412 700141109 568424676#0 568424676#1 27521528 -568424674#2 -568424674#1 -568424674#0 -568424672"/>
    </vehicle>
    <vehicle id="307" depart="1105.20">
        <route edges="253335412 700141109 568424676#0 568424676#1 27521528 -568424674#2 -568424674#1 -568424674#0 -568424672"/>
    </vehicle>
    <vehicle id="308" depart="1108.80">
        <route edges="28444031 603708718 603708716 -603708716 -603708718 -28444031"/>
    </vehicle>
    <vehicle id="309" depart="1112.40">
        <route edges="28444031 603708718 603708716 -603708716 -603708718 -28444031"/>
    </vehicle>
    <vehicle id="313" depart="1126.80">
        <route edges="-603708716 -603708718 -28444031"/>
    </vehicle>
    <vehicle id="315" depart="1134.00">
        <route edges="568424672 568424674#0 568424674#1 568424674#2 568424678#0 568424678#1 568424678#2 568424675"/>
    </vehicle>
    <vehicle id="317" depart="1141.20">
        <route edges="-603708716 -603708718 -28444031"/>
    </vehicle>
    <vehicle id="320" depart="1152.00">
        <route edges="568424672 568424674#0 568424674#1 568424674#2 568424678#0 568424678#1 568424678#2 568424675"/>
    </vehicle>
    <vehicle id="322" depart="1159.20">
        <route edges="568424672 -568424672"/>
    </vehicle>
    <vehicle id="323" depart="1162.80">
        <route edges="568424672 568424674#0 568424674#1 568424674#2 568424678#0 568424678#1 568424678#2 568424675"/>
    </vehicle>
    <vehicle id="324" depart="1166.40">
        <route edges="-8099278#1 -8099278#0 -568424679#2 -568424679#1 -568424679#0 -568424674#2 -568424674#1 -568424674#0 -568424672"/>
    </vehicle>
    <vehicle id="326" depart="1173.60">
        <route edges="568424672 -568424672"/>
    </vehicle>
    <vehicle id="328" depart="1180.80">
        <route edges="-568424675 568424675"/>
    </vehicle>
    <vehicle id="329" depart="1184.40">
        <route edges="-568424675 -568424678#2 -568424678#1 -568424678#0 -27521528 -568424676#1 -568424676#0 -700141109 -253335412"/>
    </vehicle>
    <vehicle id="331" depart="1191.60">
        <route edges="568424672 246136193#0 246136193#1 -700141109 -253335412"/>
    </vehicle>
    <vehicle id="333" depart="1198.80">
        <route edges="28444031 603708718 603708716 -603708716 -603708718 -28444031"/>
    </vehicle>
    <vehicle id="334" depart="1202.40">
        <route edges="253335412 700141109 568424676#0 568424676#1 27521528 -568424674#2 -568424674#1 -568424674#0 -568424672"/>
    </vehicle>
    <vehicle id="335" depart="1206.00">
        <route edges="-8099278#1 -8099278#0 8099278#0 8099278#1"/>
    </vehicle>
    <vehicle id="337" depart="1213.20">
        <route edges="253335412 700141109 568424676#0 568424676#1 27521528 568424678#0 568424678#1 568424678#2 568424675"/>