<?xml version="1.0" encoding="UTF-8"?>

<!-- generated on 2024-09-03 01:37:11.676135 by randomTrips.py UNKNOWN
<configuration>
    <net-file value="train_files/intersection/easy/outputs/map(82)_dict/map(82)/map(82).net.xml"/>
    <output-trip-file value="train_files/intersection/easy/outputs/map(82)_dict/map(82)/map(82).trips.xml"/>
    <fringe-factor value="max"/>
    <validate value="True"/>
    <period value="3.6"/>
</configuration>
-->

<!-- generated on 2024-09-03 01:37:11 by Eclipse SUMO duarouter Version 1.20.0
<configuration xmlns:xsi="http://www.w3.org/2001/XMLSchema-instance" xsi:noNamespaceSchemaLocation="http://sumo.dlr.de/xsd/duarouterConfiguration.xsd">

    <input>
        <net-file value="train_files/intersection/easy/outputs/map(82)_dict/map(82)/map(82).net.xml"/>
        <route-files value="train_files/intersection/easy/outputs/map(82)_dict/map(82)/map(82).trips.xml"/>
    </input>

    <output>
        <output-file value="train_files/intersection/easy/outputs/map(82)_dict/map(82)/map(82).trips.xml.tmp"/>
        <alternatives-output value="NUL"/>
        <write-trips value="true"/>
    </output>

    <time>
        <begin value="0"/>
        <end value="3600"/>
    </time>

    <report>
        <no-warnings value="true"/>
        <ignore-errors value="true"/>
        <no-step-log value="true"/>
    </report>

</configuration>
-->

<routes xmlns:xsi="http://www.w3.org/2001/XMLSchema-instance" xsi:noNamespaceSchemaLocation="http://sumo.dlr.de/xsd/routes_file.xsd">
    <trip id="0" depart="0.00" from="253335412" to="-253335412"/>
    <trip id="1" depart="3.60" from="-603708716" to="-28444031"/>
    <trip id="2" depart="7.20" from="28444031" to="603708716"/>
    <trip id="3" depart="10.80" from="568424672" to="-253335412"/>
    <trip id="4" depart="14.40" from="-8099278#1" to="-253335412"/>
    <trip id="7" depart="25.20" from="253335412" to="568424675"/>
    <trip id="10" depart="36.00" from="28444031" to="603708716"/>
    <trip id="11" depart="39.60" from="-8099278#1" to="-253335412"/>
    <trip id="12" depart="43.20" from="568424672" to="-568424672"/>
    <trip id="13" depart="46.80" from="-568424675" to="-253335412"/>
    <trip id="14" depart="50.40" from="568424672" to="568424675"/>
    <trip id="15" depart="54.00" from="28444031" to="603708716"/>
    <trip id="16" depart="57.60" from="253335412" to="8099278#1"/>
    <trip id="17" depart="61.20" from="-8099278#1" to="568424675"/>
    <trip id="19" depart="68.40" from="568424672" to="568424675"/>
    <trip id="21" depart="75.60" from="-603708716" to="-28444031"/>
    <trip id="24" depart="86.40" from="253335412" to="-568424672"/>
    <trip id="27" depart="97.20" from="253335412" to="568424675"/>
    <trip id="28" depart="100.80" from="-603708716" to="603708716"/>
    <trip id="29" depart="104.40" from="-568424675" to="-568424672"/>
    <trip id="30" depart="108.00" from="568424672" to="568424675"/>
    <trip id="34" depart="122.40" from="-603708716" to="-28444031"/>
    <trip id="37" depart="133.20" from="253335412" to="-568424672"/>
    <trip id="38" depart="136.80" from="568424672" to="-568424672"/>
    <trip id="39" depart="140.40" from="-603708716" to="-28444031"/>
    <trip id="41" depart="147.60" from="253335412" to="8099278#1"/>
    <trip id="43" depart="154.80" from="568424672" to="568424675"/>
    <trip id="44" depart="158.40" from="-568424675" to="-253335412"/>
    <trip id="45" depart="162.00" from="-568424675" to="568424675"/>
    <trip id="47" depart="169.20" from="-568424675" to="-568424672"/>
    <trip id="48" depart="172.80" from="568424672" to="568424675"/>
    <trip id="49" depart="176.40" from="568424672" to="8099278#1"/>
    <trip id="53" depart="190.80" from="-568424675" to="-568424672"/>
    <trip id="54" depart="194.40" from="-8099278#1" to="8099278#1"/>
    <trip id="57" depart="205.20" from="568424672" to="8099278#1"/>
    <trip id="59" depart="212.40" from="253335412" to="-253335412"/>
    <trip id="63" depart="226.80" from="-568424675" to="8099278#1"/>
    <trip id="66" depart="237.60" from="568424672" to="8099278#1"/>
    <trip id="67" depart="241.20" from="-568424675" to="-568424672"/>
    <trip id="70" depart="252.00" from="-8099278#1" to="568424675"/>
    <trip id="74" depart="266.40" from="-603708716" to="-28444031"/>
    <trip id="75" depart="270.00" from="568424672" to="568424675"/>
    <trip id="76" depart="273.60" from="-8099278#1" to="568424675"/>
    <trip id="78" depart="280.80" from="-8099278#1" to="568424675"/>
    <trip id="79" depart="284.40" from="-603708716" to="-28444031"/>
    <trip id="80" depart="288.00" from="-568424675" to="568424675"/>
    <trip id="82" depart="295.20" from="568424672" to="-253335412"/>
    <trip id="83" depart="298.80" from="-603708716" to="603708716"/>
    <trip id="85" depart="306.00" from="568424672" to="568424675"/>
    <trip id="87" depart="313.20" from="28444031" to="-28444031"/>
    <trip id="88" depart="316.80" from="-568424675" to="-568424672"/>
    <trip id="89" depart="320.40" from="-8099278#1" to="-568424672"/>
    <trip id="90" depart="324.00" from="28444031" to="603708716"/>
    <trip id="91" depart="327.60" from="568424672" to="-253335412"/>
    <trip id="92" depart="331.20" from="-8099278#1" to="-568424672"/>
    <trip id="97" depart="349.20" from="-8099278#1" to="8099278#1"/>
    <trip id="98" depart="352.80" from="253335412" to="-253335412"/>
    <trip id="99" depart="356.40" from="568424672" to="8099278#1"/>
    <trip id="100" depart="360.00" from="568424672" to="8099278#1"/>
    <trip id="101" depart="363.60" from="568424672" to="-253335412"/>
    <trip id="103" depart="370.80" from="-8099278#1" to="-253335412"/>
    <trip id="104" depart="374.40" from="-8099278#1" to="8099278#1"/>
    <trip id="105" depart="378.00" from="-603708716" to="603708716"/>
    <trip id="106" depart="381.60" from="-8099278#1" to="-568424672"/>
    <trip id="107" depart="385.20" from="568424672" to="8099278#1"/>
    <trip id="110" depart="396.00" from="568424672" to="568424675"/>
    <trip id="112" depart="403.20" from="-568424675" to="568424675"/>
    <trip id="113" depart="406.80" from="253335412" to="8099278#1"/>
    <trip id="114" depart="410.40" from="-568424675" to="8099278#1"/>
    <trip id="119" depart="428.40" from="253335412" to="568424675"/>
    <trip id="120" depart="432.00" from="-8099278#1" to="568424675"/>
    <trip id="121" depart="435.60" from="253335412" to="8099278#1"/>
    <trip id="122" depart="439.20" from="-603708716" to="603708716"/>
    <trip id="124" depart="446.40" from="28444031" to="-28444031"/>
    <trip id="125" depart="450.00" from="-603708716" to="603708716"/>
    <trip id="126" depart="453.60" from="-568424675" to="-568424672"/>
    <trip id="127" depart="457.20" from="568424672" to="8099278#1"/>
    <trip id="130" depart="468.00" from="568424672" to="8099278#1"/>
    <trip id="131" depart="471.60" from="-8099278#1" to="-253335412"/>
    <trip id="133" depart="478.80" from="253335412" to="8099278#1"/>
    <trip id="134" depart="482.40" from="253335412" to="-253335412"/>
    <trip id="135" depart="486.00" from="28444031" to="-28444031"/>
    <trip id="136" depart="489.60" from="253335412" to="8099278#1"/>
    <trip id="137" depart="493.20" from="-568424675" to="-253335412"/>
    <trip id="138" depart="496.80" from="-568424675" to="568424675"/>
    <trip id="140" depart="504.00" from="28444031" to="-28444031"/>
    <trip id="142" depart="511.20" from="-8099278#1" to="8099278#1"/>
    <trip id="143" depart="514.80" from="568424672" to="-253335412"/>
    <trip id="148" depart="532.80" from="-8099278#1" to="-253335412"/>
    <trip id="149" depart="536.40" from="-568424675" to="8099278#1"/>
    <trip id="150" depart="540.00" from="568424672" to="568424675"/>
    <trip id="151" depart="543.60" from="568424672" to="568424675"/>
    <trip id="152" depart="547.20" from="-568424675" to="-253335412"/>
    <trip id="158" depart="568.80" from="-8099278#1" to="568424675"/>
    <trip id="159" depart="572.40" from="-568424675" to="8099278#1"/>
    <trip id="160" depart="576.00" from="568424672" to="8099278#1"/>
    <trip id="165" depart="594.00" from="28444031" to="-28444031"/>
    <trip id="167" depart="601.20" from="568424672" to="8099278#1"/>
    <trip id="168" depart="604.80" from="-603708716" to="603708716"/>
    <trip id="170" depart="612.00" from="28444031" to="-28444031"/>
    <trip id="174" depart="626.40" from="253335412" to="-568424672"/>
    <trip id="175" depart="630.00" from="568424672" to="568424675"/>
    <trip id="176" depart="633.60" from="568424672" to="-253335412"/>
    <trip id="179" depart="644.40" from="-568424675" to="-568424672"/>
    <trip id="180" depart="648.00" from="28444031" to="-28444031"/>
    <trip id="181" depart="651.60" from="253335412" to="568424675"/>
    <trip id="182" depart="655.20" from="-8099278#1" to="568424675"/>
    <trip id="183" depart="658.80" from="-603708716" to="603708716"/>
    <trip id="184" depart="662.40" from="-568424675" to="8099278#1"/>
    <trip id="186" depart="669.60" from="28444031" to="603708716"/>
    <trip id="187" depart="673.20" from="-8099278#1" to="-253335412"/>
    <trip id="190" depart="684.00" from="28444031" to="-28444031"/>
    <trip id="193" depart="694.80" from="-568424675" to="-568424672"/>
    <trip id="195" depart="702.00" from="568424672" to="568424675"/>
    <trip id="198" depart="712.80" from="-8099278#1" to="568424675"/>
    <trip id="199" depart="716.40" from="253335412" to="-568424672"/>
    <trip id="201" depart="723.60" from="-8099278#1" to="8099278#1"/>
    <trip id="202" depart="727.20" from="28444031" to="-28444031"/>
    <trip id="203" depart="730.80" from="-568424675" to="568424675"/>
    <trip id="204" depart="734.40" from="253335412" to="-568424672"/>
    <trip id="205" depart="738.00" from="28444031" to="603708716"/>
    <trip id="206" depart="741.60" from="28444031" to="-28444031"/>
    <trip id="209" depart="752.40" from="568424672" to="-253335412"/>
    <trip id="210" depart="756.00" from="-8099278#1" to="568424675"/>
    <trip id="211" depart="759.60" from="-603708716" to="603708716"/>
    <trip id="213" depart="766.80" from="253335412" to="-253335412"/>
    <trip id="214" depart="770.40" from="28444031" to="603708716"/>
    <trip id="215" depart="774.00" from="-568424675" to="-568424672"/>
    <trip id="217" depart="781.20" from="253335412" to="-253335412"/>
    <trip id="221" depart="795.60" from="253335412" to="8099278#1"/>
    <trip id="222" depart="799.20" from="568424672" to="568424675"/>
    <trip id="231" depart="831.60" from="-603708716" to="-28444031"/>
    <trip id="232" depart="835.20" from="253335412" to="-253335412"/>
    <trip id="233" depart="838.80" from="-603708716" to="603708716"/>
    <trip id="235" depart="846.00" from="-8099278#1" to="568424675"/>
    <trip id="237" depart="853.20" from="-8099278#1" to="8099278#1"/>
    <trip id="240" depart="864.00" from="-8099278#1" to="-253335412"/>
    <trip id="242" depart="871.20" from="568424672" to="8099278#1"/>
    <trip id="244" depart="878.40" from="253335412" to="568424675"/>
    <trip id="245" depart="882.00" from="-603708716" to="-28444031"/>
    <trip id="246" depart="885.60" from="-8099278#1" to="-253335412"/>
    <trip id="248" depart="892.80" from="-8099278#1" to="-253335412"/>
    <trip id="249" depart="896.40" from="-8099278#1" to="-253335412"/>
    <trip id="250" depart="900.00" from="253335412" to="-253335412"/>
    <trip id="251" depart="903.60" from="-8099278#1" to="568424675"/>
    <trip id="252" depart="907.20" from="-568424675" to="568424675"/>
    <trip id="253" depart="910.80" from="-568424675" to="-568424672"/>
    <trip id="254" depart="914.40" from="-568424675" to="-568424672"/>
    <trip id="255" depart="918.00" from="-603708716" to="-28444031"/>
    <trip id="257" depart="925.20" from="28444031" to="603708716"/>
    <trip id="259" depart="932.40" from="-568424675" to="568424675"/>
    <trip id="260" depart="936.00" from="568424672" to="-568424672"/>
    <trip id="264" depart="950.40" from="-568424675" to="-253335412"/>
    <trip id="267" depart="961.20" from="28444031" to="603708716"/>
    <trip id="271" depart="975.60" from="-568424675" to="-253335412"/>
    <trip id="272" depart="979.20" from="-603708716" to="603708716"/>
    <trip id="273" depart="982.80" from="568424672" to="-568424672"/>
    <trip id="277" depart="997.20" from="568424672" to="568424675"/>
    <trip id="278" depart="1000.80" from="-568424675" to="8099278#1"/>
    <trip id="280" depart="1008.00" from="-8099278#1" to="-568424672"/>
    <trip id="281" depart="1011.60" from="253335412" to="-568424672"/>
    <trip id="283" depart="1018.80" from="-568424675" to="8099278#1"/>
    <trip id="287" depart="1033.20" from="-603708716" to="603708716"/>
    <trip id="288" depart="1036.80" from="253335412" to="-568424672"/>
    <trip id="293" depart="1054.80" from="-8099278#1" to="568424675"/>
    <trip id="294" depart="1058.40" from="-8099278#1" to="-253335412"/>
    <trip id="296" depart="1065.60" from="-603708716" to="603708716"/>
    <trip id="297" depart="1069.20" from="-8099278#1" to="8099278#1"/>
    <trip id="298" depart="1072.80" from="28444031" to="-28444031"/>
    <trip id="299" depart="1076.40" from="-568424675" to="8099278#1"/>
    <trip id="305" depart="1098.00" from="28444031" to="-28444031"/>
    <trip id="306" depart="1101.60" from="253335412" to="-568424672"/>
    <trip id="307" depart="1105.20" from="253335412" to="-568424672"/>
    <trip id="308" depart="1108.80" from="28444031" to="-28444031"/>
    <trip id="309" depart="1112.40" from="28444031" to="-28444031"/>
    <trip id="313" depart="1126.80" from="-603708716" to="-28444031"/>
    <trip id="315" depart="1134.00" from="568424672" to="568424675"/>
    <trip id="317" depart="1141.20" from="-603708716" to="-28444031"/>
    <trip id="320" depart="1152.00" from="568424672" to="568424675"/>
    <trip id="322" depart="1159.20" from="568424672" to="-568424672"/>
    <trip id="323" depart="1162.80" from="568424672" to="568424675"/>
    <trip id="324" depart="1166.40" from="-8099278#1" to="-568424672"/>
    <trip id="326" depart="1173.60" from="568424672" to="-568424672"/>
    <trip id="328" depart="1180.80" from="-568424675" to="568424675"/>
    <trip id="329" depart="1184.40" from="-568424675" to="-253335412"/>
    <trip id="331" depart="1191.60" from="568424672" to="-253335412"/>
    <trip id="333" depart="1198.80" from="28444031" to="-28444031"/>
    <trip id="334" depart="1202.40" from="253335412" to="-568424672"/>
    <trip id="335" depart="1206.00" from="-8099278#1" to="8099278#1"/>
    <trip id="337" depart="1213.20" from="253335412" to="568424675"/>
    <trip id="339" depart="1220.40" from="-603708716" to="-28444031"/>
    <trip id="340" depart="1224.00" from="253335412" to="-253335412"/>
    <trip id="342" depart="1231.20" from="-568424675" to="-568424672"/>
    <trip id="344" depart="1238.40" from="-603708716" to="603708716"/>
    <trip id="348" depart="1252.80" from="253335412" to="8099278#1"/>
    <trip id="349" depart="1256.40" from="-8099278#1" to="568424675"/>
    <trip id="350" depart="1260.00" from="253335412" to="8099278#1"/>
    <trip id="355" depart="1278.00" from="28444031" to="603708716"/>
    <trip id="356" depart="1281.60" from="568424672" to="568424675"/>
    <trip id="357" depart="1285.20" from="-8099278#1" to="-253335412"/>
    <trip id="358" depart="1288.80" from="-568424675" to="-568424672"/>
    <trip id="359" depart="1292.40" from="-603708716" to="-28444031"/>
    <trip id="360" depart="1296.00" from="-568424675" to="8099278#1"/>
    <trip id="361" depart="1299.60" from="568424672" to="568424675"/>
    <trip id="362" depart="1303.20" from="568424672" to="8099278#1"/>
    <trip id="363" depart="1306.80" from="28444031" to="-28444031"/>
    <trip id="365" depart="1314.00" from="-8099278#1" to="568424675"/>
    <trip id="367" depart="1321.20" from="253335412" to="568424675"/>
    <trip id="368" depart="1324.80" from="-8099278#1" to="-253335412"/>
    <trip id="371" depart="1335.60" from="-603708716" to="603708716"/>
    <trip id="376" depart="1353.60" from="-8099278#1" to="568424675"/>
    <trip id="377" depart="1357.20" from="568424672" to="568424675"/>
    <trip id="378" depart="1360.80" from="253335412" to="-568424672"/>
    <trip id="381" depart="1371.60" from="28444031" to="-28444031"/>
    <trip id="382" depart="1375.20" from="253335412" to="8099278#1"/>
    <trip id="384" depart="1382.40" from="-568424675" to="8099278#1"/>
    <trip id="386" depart="1389.60" from="-568424675" to="568424675"/>
    <trip id="387" depart="1393.20" from="253335412" to="-253335412"/>
    <trip id="388" depart="1396.80" from="568424672" to="8099278#1"/>
    <trip id="389" depart="1400.40" from="-8099278#1" to="-253335412"/>
    <trip id="394" depart="1418.40" from="253335412" to="-568424672"/>
    <trip id="395" depart="1422.00" from="568424672" to="568424675"/>
    <trip id="396" depart="1425.60" from="568424672" to="8099278#1"/>
    <trip id="397" depart="1429.20" from="-603708716" to="603708716"/>
    <trip id="398" depart="1432.80" from="-8099278#1" to="8099278#1"/>
    <trip id="400" depart="1440.00" from="-603708716" to="-28444031"/>
    <trip id="401" depart="1443.60" from="253335412" to="8099278#1"/>
    <trip id="402" depart="1447.20" from="-8099278#1" to="-253335412"/>
    <trip id="403" depart="1450.80" from="253335412" to="-568424672"/>
    <trip id="404" depart="1454.40" from="253335412" to="568424675"/>
    <trip id="406" depart="1461.60" from="-603708716" to="603708716"/>
    <trip id="409" depart="1472.40" from="28444031" to="603708716"/>
    <trip id="412" depart="1483.20" from="568424672" to="-568424672"/>
    <trip id="413" depart="1486.80" from="-568424675" to="568424675"/>
    <trip id="414" depart="1490.40" from="253335412" to="8099278#1"/>
    <trip id="415" depart="1494.00" from="568424672" to="-568424672"/>
    <trip id="416" depart="1497.60" from="253335412" to="-568424672"/>
    <trip id="418" depart="1504.80" from="253335412" to="-253335412"/>
    <trip id="419" depart="1508.40" from="-8099278#1" to="8099278#1"/>
    <trip id="421" depart="1515.60" from="253335412" to="8099278#1"/>
    <trip id="422" depart="1519.20" from="568424672" to="8099278#1"/>
    <trip id="424" depart="1526.40" from="28444031" to="603708716"/>
    <trip id="425" depart="1530.00" from="568424672" to="-253335412"/>
    <trip id="426" depart="1533.60" from="-568424675" to="568424675"/>
    <trip id="427" depart="1537.20" from="568424672" to="8099278#1"/>
    <trip id="429" depart="1544.40" from="-568424675" to="568424675"/>
    <trip id="430" depart="1548.00" from="568424672" to="-568424672"/>
    <trip id="434" depart="1562.40" from="-568424675" to="568424675"/>
    <trip id="437" depart="1573.20" from="568424672" to="568424675"/>
    <trip id="439" depart="1580.40" from="-568424675" to="-568424672"/>
    <trip id="440" depart="1584.00" from="-603708716" to="-28444031"/>
    <trip id="443" depart="1594.80" from="-568424675" to="-568424672"/>
    <trip id="444" depart="1598.40" from="-8099278#1" to="568424675"/>
    <trip id="445" depart="1602.00" from="253335412" to="-568424672"/>
    <trip id="449" depart="1616.40" from="253335412" to="568424675"/>
    <trip id="451" depart="1623.60" from="568424672" to="568424675"/>
    <trip id="453" depart="1630.80" from="28444031" to="603708716"/>
    <trip id="454" depart="1634.40" from="-568424675" to="568424675"/>
    <trip id="455" depart="1638.00" from="-8099278#1" to="8099278#1"/>
    <trip id="456" depart="1641.60" from="-603708716" to="603708716"/>
    <trip id="457" depart="1645.20" from="253335412" to="-568424672"/>
    <trip id="458" depart="1648.80" from="253335412" to="568424675"/>
    <trip id="459" depart="1652.40" from="28444031" to="603708716"/>
    <trip id="460" depart="1656.00" from="253335412" to="8099278#1"/>
    <trip id="461" depart="1659.60" from="253335412" to="8099278#1"/>
    <trip id="463" depart="1666.80" from="-8099278#1" to="568424675"/>
    <trip id="465" depart="1674.00" from="-603708716" to="603708716"/>
    <trip id="467" depart="1681.20" from="253335412" to="8099278#1"/>
    <trip id="468" depart="1684.80" from="253335412" to="8099278#1"/>
    <trip id="469" depart="1688.40" from="28444031" to="-28444031"/>
    <trip id="471" depart="1695.60" from="28444031" to="603708716"/>
    <trip id="472" depart="1699.20" from="-8099278#1" to="-253335412"/>
    <trip id="473" depart="1702.80" from="568424672" to="-253335412"/>
    <trip id="474" depart="1706.40" from="568424672" to="8099278#1"/>
    <trip id="478" depart="1720.80" from="-568424675" to="568424675"/>
    <trip id="483" depart="1738.80" from="-568424675" to="8099278#1"/>
    <trip id="484" depart="1742.40" from="253335412" to="8099278#1"/>
    <trip id="488" depart="1756.80" from="-568424675" to="8099278#1"/>
    <trip id="490" depart="1764.00" from="-568424675" to="8099278#1"/>
    <trip id="491" depart="1767.60" from="-568424675" to="-568424672"/>
    <trip id="492" depart="1771.20" from="28444031" to="603708716"/>
    <trip id="493" depart="1774.80" from="568424672" to="-568424672"/>
    <trip id="495" depart="1782.00" from="-8099278#1" to="-253335412"/>
    <trip id="496" depart="1785.60" from="-8099278#1" to="-568424672"/>
    <trip id="497" depart="1789.20" from="568424672" to="-253335412"/>
    <trip id="498" depart="1792.80" from="-8099278#1" to="-568424672"/>
    <trip id="499" depart="1796.40" from="568424672" to="8099278#1"/>
    <trip id="501" depart="1803.60" from="253335412" to="8099278#1"/>
    <trip id="502" depart="1807.20" from="-8099278#1" to="-568424672"/>
    <trip id="504" depart="1814.40" from="568424672" to="-568424672"/>
    <trip id="505" depart="1818.00" from="253335412" to="568424675"/>
    <trip id="506" depart="1821.60" from="253335412" to="-253335412"/>
    <trip id="507" depart="1825.20" from="28444031" to="-28444031"/>
    <trip id="508" depart="1828.80" from="-568424675" to="568424675"/>
    <trip id="510" depart="1836.00" from="-603708716" to="-28444031"/>
    <trip id="512" depart="1843.20" from="-568424675" to="8099278#1"/>
    <trip id="513" depart="1846.80" from="-568424675" to="8099278#1"/>
    <trip id="514" depart="1850.40" from="-568424675" to="-253335412"/>
    <trip id="515" depart="1854.00" from="-603708716" to="-28444031"/>
    <trip id="516" depart="1857.60" from="253335412" to="-253335412"/>
    <trip id="518" depart="1864.80" from="-603708716" to="-28444031"/>
    <trip id="523" depart="1882.80" from="-568424675" to="568424675"/>
    <trip id="524" depart="1886.40" from="568424672" to="-253335412"/>
    <trip id="526" depart="1893.60" from="253335412" to="-568424672"/>
    <trip id="527" depart="1897.20" from="568424672" to="-253335412"/>
    <trip id="528" depart="1900.80" from="-8099278#1" to="-568424672"/>
    <trip id="530" depart="1908.00" from="568424672" to="-253335412"/>
    <trip id="531" depart="1911.60" from="-568424675" to="568424675"/>
    <trip id="533" depart="1918.80" from="253335412" to="568424675"/>
    <trip id="535" depart="1926.00" from="253335412" to="-568424672"/>
    <trip id="536" depart="1929.60" from="253335412" to="-253335412"/>
    <trip id="539" depart="1940.40" from="28444031" to="-28444031"/>
    <trip id="541" depart="1947.60" from="-8099278#1" to="-568424672"/>
    <trip id="542" depart="1951.20" from="-8099278#1" to="-253335412"/>
    <trip id="543" depart="1954.80" from="-8099278#1" to="568424675"/>
    <trip id="544" depart="1958.40" from="-8099278#1" to="-253335412"/>
    <trip id="545" depart="1962.00" from="568424672" to="-253335412"/>
    <trip id="549" depart="1976.40" from="253335412" to="568424675"/>
    <trip id="551" depart="1983.60" from="-8099278#1" to="568424675"/>
    <trip id="554" depart="1994.40" from="253335412" to="-568424672"/>
    <trip id="557" depart="2005.20" from="-568424675" to="8099278#1"/>
    <trip id="560" depart="2016.00" from="568424672" to="8099278#1"/>
    <trip id="562" depart="2023.20" from="253335412" to="-253335412"/>
    <trip id="564" depart="2030.40" from="-603708716" to="-28444031"/>
    <trip id="565" depart="2034.00" from="28444031" to="-28444031"/>
    <trip id="566" depart="2037.60" from="-8099278#1" to="-253335412"/>
    <trip id="567" depart="2041.20" from="568424672" to="568424675"/>
    <trip id="568" depart="2044.80" from="-8099278#1" to="-253335412"/>
    <trip id="569" depart="2048.40" from="253335412" to="-253335412"/>
    <trip id="570" depart="2052.00" from="28444031" to="-28444031"/>
    <trip id="571" depart="2055.60" from="-8099278#1" to="-568424672"/>
    <trip id="574" depart="2066.40" from="-568424675" to="-253335412"/>
    <trip id="575" depart="2070.00" from="-568424675" to="568424675"/>
    <trip id="576" depart="2073.60" from="28444031" to="-28444031"/>
    <trip id="577" depart="2077.20" from="253335412" to="-568424672"/>
    <trip id="583" depart="2098.80" from="-8099278#1" to="568424675"/>
    <trip id="586" depart="2109.60" from="-603708716" to="-28444031"/>
    <trip id="591" depart="2127.60" from="-568424675" to="8099278#1"/>
    <trip id="592" depart="2131.20" from="-568424675" to="-253335412"/>
    <trip id="593" depart="2134.80" from="568424672" to="8099278#1"/>
    <trip id="594" depart="2138.40" from="253335412" to="568424675"/>
    <trip id="596" depart="2145.60" from="-568424675" to="-253335412"/>
    <trip id="597" depart="2149.20" from="-603708716" to="603708716"/>
    <trip id="599" depart="2156.40" from="568424672" to="-253335412"/>
    <trip id="601" depart="2163.60" from="253335412" to="568424675"/>
    <trip id="605" depart="2178.00" from="-568424675" to="568424675"/>
    <trip id="606" depart="2181.60" from="568424672" to="-568424672"/>
    <trip id="607" depart="2185.20" from="28444031" to="603708716"/>
    <trip id="608" depart="2188.80" from="28444031" to="-28444031"/>
    <trip id="613" depart="2206.80" from="28444031" to="603708716"/>
    <trip id="614" depart="2210.40" from="-8099278#1" to="8099278#1"/>
    <trip id="615" depart="2214.00" from="253335412" to="568424675"/>
    <trip id="616" depart="2217.60" from="253335412" to="8099278#1"/>
    <trip id="617" depart="2221.20" from="253335412" to="-253335412"/>
    <trip id="618" depart="2224.80" from="-568424675" to="-568424672"/>
    <trip id="619" depart="2228.40" from="-603708716" to="-28444031"/>
    <trip id="620" depart="2232.00" from="-568424675" to="568424675"/>
    <trip id="623" depart="2242.80" from="-568424675" to="8099278#1"/>
    <trip id="624" depart="2246.40" from="568424672" to="568424675"/>
    <trip id="625" depart="2250.00" from="253335412" to="-568424672"/>
    <trip id="627" depart="2257.20" from="568424672" to="-568424672"/>
    <trip id="630" depart="2268.00" from="-568424675" to="-253335412"/>
    <trip id="631" depart="2271.60" from="-568424675" to="8099278#1"/>
    <trip id="635" depart="2286.00" from="-8099278#1" to="568424675"/>
    <trip id="636" depart="2289.60" from="-568424675" to="-568424672"/>
    <trip id="638" depart="2296.80" from="-8099278#1" to="568424675"/>
    <trip id="640" depart="2304.00" from="-568424675" to="-253335412"/>
    <trip id="641" depart="2307.60" from="28444031" to="-28444031"/>
    <trip id="643" depart="2314.80" from="568424672" to="8099278#1"/>
    <trip id="644" depart="2318.40" from="-8099278#1" to="568424675"/>
    <trip id="645" depart="2322.00" from="-568424675" to="-568424672"/>
    <trip id="647" depart="2329.20" from="-8099278#1" to="568424675"/>
    <trip id="650" depart="2340.00" from="28444031" to="603708716"/>
    <trip id="651" depart="2343.60" from="28444031" to="603708716"/>
    <trip id="653" depart="2350.80" from="253335412" to="-568424672"/>
    <trip id="654" depart="2354.40" from="-8099278#1" to="-568424672"/>
    <trip id="655" depart="2358.00" from="-603708716" to="-28444031"/>
    <trip id="656" depart="2361.60" from="568424672" to="-568424672"/>
    <trip id="658" depart="2368.80" from="-568424675" to="8099278#1"/>
    <trip id="660" depart="2376.00" from="568424672" to="8099278#1"/>
    <trip id="661" depart="2379.60" from="-568424675" to="-568424672"/>
    <trip id="663" depart="2386.80" from="-8099278#1" to="-253335412"/>
    <trip id="664" depart="2390.40" from="28444031" to="603708716"/>
    <trip id="666" depart="2397.60" from="-8099278#1" to="-568424672"/>
    <trip id="667" depart="2401.20" from="28444031" to="-28444031"/>
    <trip id="672" depart="2419.20" from="568424672" to="-568424672"/>
    <trip id="673" depart="2422.80" from="568424672" to="8099278#1"/>
    <trip id="675" depart="2430.00" from="-8099278#1" to="568424675"/>
    <trip id="679" depart="2444.40" from="568424672" to="568424675"/>
    <trip id="680" depart="2448.00" from="-568424675" to="8099278#1"/>
    <trip id="682" depart="2455.20" from="28444031" to="-28444031"/>
    <trip id="683" depart="2458.80" from="568424672" to="-253335412"/>
    <trip id="684" depart="2462.40" from="-8099278#1" to="8099278#1"/>
    <trip id="686" depart="2469.60" from="-8099278#1" to="-253335412"/>
    <trip id="687" depart="2473.20" from="-568424675" to="568424675"/>
    <trip id="689" depart="2480.40" from="-8099278#1" to="-253335412"/>
    <trip id="690" depart="2484.00" from="568424672" to="8099278#1"/>
    <trip id="693" depart="2494.80" from="28444031" to="603708716"/>
    <trip id="695" depart="2502.00" from="-8099278#1" to="-253335412"/>
    <trip id="697" depart="2509.20" from="568424672" to="568424675"/>
    <trip id="702" depart="2527.20" from="-8099278#1" to="-253335412"/>
    <trip id="703" depart="2530.80" from="568424672" to="568424675"/>
    <trip id="704" depart="2534.40" from="-568424675" to="568424675"/>
    <trip id="706" depart="2541.60" from="-8099278#1" to="568424675"/>
    <trip id="708" depart="2548.80" from="253335412" to="-253335412"/>
    <trip id="709" depart="2552.40" from="568424672" to="-253335412"/>