<?xml version="1.0" encoding="UTF-8"?>

<!-- generated on 2024-09-03 01:37:41 by Eclipse SUMO netconvert Version 1.20.0
<configuration xmlns:xsi="http://www.w3.org/2001/XMLSchema-instance" xsi:noNamespaceSchemaLocation="http://sumo.dlr.de/xsd/netconvertConfiguration.xsd">

    <input>
        <osm-files value="train_files/roundabout/middle/osm_files/map(104).osm"/>
    </input>

    <output>
        <output-file value="train_files/roundabout/middle/outputs/map(104)_dict/map(104)/map(104).net.xml"/>
    </output>

    <projection>
        <proj.utm value="true"/>
    </projection>

    <building_defaults>
        <default.junctions.keep-clear value="false"/>
    </building_defaults>

</configuration>
-->

<net version="1.20" junctionCornerDetail="5" limitTurnSpeed="5.50" xmlns:xsi="http://www.w3.org/2001/XMLSchema-instance" xsi:noNamespaceSchemaLocation="http://sumo.dlr.de/xsd/net_file.xsd">

    <location netOffset="-444740.87,-5411223.95" convBoundary="0.00,0.00,8919.63,4201.62" origBoundary="2.246167,48.852252,2.368303,48.889316" projParameter="+proj=utm +zone=31 +ellps=WGS84 +datum=WGS84 +units=m +no_defs"/>

    <type id="highway.cycleway" priority="1" numLanes="1" speed="5.56" allow="bicycle" oneway="0" width="2.00"/>
    <type id="highway.footway" priority="1" numLanes="1" speed="2.78" allow="pedestrian" oneway="1" width="2.00"/>
    <type id="highway.pedestrian" priority="1" numLanes="1" speed="2.78" allow="pedestrian" oneway="1" width="2.00"/>
    <type id="highway.primary" priority="12" numLanes="2" speed="27.78" disallow="tram rail_urban rail rail_electric rail_fast ship container cable_car subway aircraft wheelchair scooter drone" oneway="0"/>
    <type id="highway.residential" priority="3" numLanes="1" speed="13.89" disallow="tram rail_urban rail rail_electric rail_fast ship container cable_car subway aircraft wheelchair scooter drone" oneway="0"/>
    <type id="highway.secondary" priority="11" numLanes="1" speed="27.78" disallow="tram rail_urban rail rail_electric rail_fast ship container cable_car subway aircraft wheelchair scooter drone" oneway="0"/>
    <type id="highway.service" priority="1" numLanes="1" speed="5.56" allow="pedestrian delivery bicycle" oneway="0"/>
    <type id="highway.steps" priority="1" numLanes="1" speed="1.39" allow="pedestrian" oneway="1" width="2.00"/>
    <type id="highway.tertiary" priority="10" numLanes="1" speed="22.22" disallow="tram rail_urban rail rail_electric rail_fast ship container cable_car subway aircraft wheelchair scooter drone" oneway="0"/>
    <type id="highway.unclassified" priority="4" numLanes="1" speed="13.89" disallow="tram rail_urban rail rail_electric rail_fast ship container cable_car subway aircraft wheelchair scooter drone" oneway="0"/>
    <type id="railway.rail" priority="20" numLanes="1" speed="44.44" allow="rail" oneway="1"/>
    <type id="railway.subway" priority="18" numLanes="1" speed="27.78" allow="subway" oneway="1"/>

    <edge id=":10726236069_0" function="internal">
        <lane id=":10726236069_0_0" index="0" allow="rail rail_electric rail_fast" speed="23.61" length="0.30" shape="3432.66,2512.98 3432.36,2513.03"/>
    </edge>
    <edge id=":10726236070_0" function="internal">
        <lane id=":10726236070_0_0" index="0" allow="rail rail_electric rail_fast" speed="23.61" length="0.10" shape="3433.09,2516.18 3433.09,2516.18"/>
    </edge>
    <edge id=":10750309673_0" function="internal">
        <lane id=":10750309673_0_0" index="0" allow="bicycle" speed="3.80" length="2.79" width="2.00" shape="3717.12,2378.81 3716.70,2378.53 3716.14,2378.82 3715.50,2379.36 3714.83,2379.84"/>
    </edge>
    <edge id=":10750309673_1" function="internal">
        <lane id=":10750309673_1_0" index="0" allow="bicycle" speed="5.56" length="23.57" width="2.00" shape="3717.12,2378.81 3706.43,2357.81"/>
    </edge>
    <edge id=":10750309673_2" function="internal">
        <lane id=":10750309673_2_0" index="0" allow="bicycle" speed="7.68" length="14.45" width="2.00" shape="3717.12,2378.81 3714.36,2373.23 3712.62,2369.15 3711.89,2366.57 3712.19,2365.50"/>
    </edge>
    <edge id=":10750309673_3" function="internal">
        <lane id=":10750309673_3_0" index="0" allow="bicycle" speed="2.89" length="2.92" width="2.00" shape="3717.12,2378.81 3717.22,2377.92 3717.55,2377.47 3718.11,2377.46 3718.90,2377.90"/>
    </edge>
    <edge id=":10750309673_4" function="internal">
        <lane id=":10750309673_4_0" index="0" allow="bicycle" speed="3.35" length="1.76" width="2.00" shape="3717.27,2378.55 3718.90,2377.90"/>
    </edge>
    <edge id=":10750309673_5" function="internal">
        <lane id=":10750309673_5_0" index="0" disallow="tram rail_urban rail rail_electric rail_fast ship container cable_car subway aircraft wheelchair scooter drone" speed="13.89" length="3.35" shape="3717.05,2377.99 3716.28,2378.32 3715.78,2378.60 3715.29,2378.90 3714.56,2379.30"/>
        <lane id=":10750309673_5_1" index="1" disallow="tram rail_urban rail rail_electric rail_fast ship container cable_car subway aircraft wheelchair scooter drone" speed="13.89" length="3.35" shape="3715.89,2375.01 3715.02,2375.38 3714.46,2375.68 3713.90,2376.01 3713.08,2376.47"/>
        <lane id=":10750309673_5_2" index="2" disallow="tram rail_urban rail rail_electric rail_fast ship container cable_car subway aircraft wheelchair scooter drone" speed="13.89" length="3.35" shape="3714.73,2372.03 3713.77,2372.43 3713.13,2372.76 3712.52,2373.12 3711.60,2373.63"/>
        <lane id=":10750309673_5_3" index="3" disallow="tram rail_urban rail rail_electric rail_fast ship container cable_car subway aircraft wheelchair scooter drone" speed="13.89" length="3.35" shape="3713.57,2369.04 3712.51,2369.49 3711.81,2369.85 3711.13,2370.24 3710.12,2370.79"/>
    </edge>
    <edge id=":10750309673_9" function="internal">
        <lane id=":10750309673_9_0" index="0" allow="bicycle" speed="7.93" length="1.86" width="2.00" shape="3713.35,2368.49 3712.43,2368.01 3711.94,2367.36"/>
    </edge>
    <edge id=":10750309673_20" function="internal">
        <lane id=":10750309673_20_0" index="0" allow="bicycle" speed="7.93" length="11.04" width="2.00" shape="3711.94,2367.36 3710.97,2366.07 3708.96,2362.67 3706.43,2357.81"/>
    </edge>
    <edge id=":10750309673_10" function="internal">
        <lane id=":10750309673_10_0" index="0" allow="bicycle" speed="9.72" length="0.72" width="2.00" shape="3708.21,2356.91 3708.31,2356.98 3708.41,2356.88 3708.54,2356.70 3708.72,2356.55"/>
    </edge>
    <edge id=":10750309673_11" function="internal">
        <lane id=":10750309673_11_0" index="0" allow="bicycle" speed="5.56" length="23.55" width="2.00" shape="3708.21,2356.91 3718.90,2377.90"/>
    </edge>
    <edge id=":10750309673_12" function="internal">
        <lane id=":10750309673_12_0" index="0" allow="bicycle" speed="8.31" length="15.58" width="2.00" shape="3708.21,2356.91 3710.67,2362.43 3711.85,2366.68 3711.76,2369.64 3710.40,2371.32"/>
    </edge>
    <edge id=":10750309673_13" function="internal">
        <lane id=":10750309673_13_0" index="0" allow="bicycle" speed="2.89" length="2.92" width="2.00" shape="3708.21,2356.91 3708.10,2357.80 3707.77,2358.25 3707.21,2358.25 3706.43,2357.81"/>
    </edge>
    <edge id=":10750309673_14" function="internal">
        <lane id=":10750309673_14_0" index="0" allow="bicycle" speed="4.14" length="2.99" width="2.00" shape="3703.93,2358.91 3704.76,2358.66 3705.68,2358.52 3706.35,2358.29 3706.43,2357.81"/>
    </edge>
    <edge id=":10750309673_15" function="internal">
        <lane id=":10750309673_15_0" index="0" disallow="tram rail_urban rail rail_electric rail_fast ship container cable_car subway aircraft wheelchair scooter drone" speed="13.89" length="4.74" shape="3704.21,2359.44 3705.59,2358.70 3706.53,2358.18 3707.49,2357.71 3708.93,2357.11"/>
        <lane id=":10750309673_15_1" index="1" disallow="tram rail_urban rail rail_electric rail_fast ship container cable_car subway aircraft wheelchair scooter drone" speed="13.89" length="4.74" shape="3705.69,2362.28 3706.97,2361.58 3707.85,2361.09 3708.74,2360.65 3710.09,2360.10"/>
        <lane id=":10750309673_15_2" index="2" disallow="tram rail_urban rail rail_electric rail_fast ship container cable_car subway aircraft wheelchair scooter drone" speed="13.89" length="4.74" shape="3707.17,2365.11 3708.36,2364.47 3709.17,2364.01 3710.00,2363.60 3711.25,2363.08"/>
        <lane id=":10750309673_15_3" index="3" disallow="tram rail_urban rail rail_electric rail_fast ship container cable_car subway aircraft wheelchair scooter drone" speed="13.89" length="4.74" shape="3708.64,2367.95 3709.74,2367.35 3710.49,2366.93 3711.26,2366.54 3712.41,2366.06"/>
    </edge>
    <edge id=":10750309673_19" function="internal">
        <lane id=":10750309673_19_0" index="0" allow="bicycle" speed="8.14" length="0.44" width="2.00" shape="3708.92,2368.48 3709.36,2368.44"/>
    </edge>
    <edge id=":10750309673_21" function="internal">
        <lane id=":10750309673_21_0" index="0" allow="bicycle" speed="8.14" length="14.33" width="2.00" shape="3709.36,2368.44 3711.06,2368.28 3713.43,2369.79 3716.05,2372.99 3718.90,2377.90"/>
    </edge>
    <edge id=":11010529699_0" function="internal">
        <lane id=":11010529699_0_0" index="0" allow="bicycle" speed="5.56" length="5.04" width="2.00" shape="3406.84,2406.59 3405.96,2411.55"/>
    </edge>
    <edge id=":11010529699_1" function="internal">
        <lane id=":11010529699_1_0" index="0" allow="bicycle" speed="2.89" length="1.27" width="2.00" shape="3406.84,2406.59 3406.21,2407.24 3405.86,2407.35"/>
    </edge>
    <edge id=":11010529699_4" function="internal">
        <lane id=":11010529699_4_0" index="0" allow="bicycle" speed="2.89" length="1.65" width="2.00" shape="3405.86,2407.35 3405.68,2407.40 3405.23,2407.07 3404.87,2406.24"/>
    </edge>
    <edge id=":11010529699_2" function="internal">
        <lane id=":11010529699_2_0" index="0" allow="bicycle" speed="5.56" length="5.04" width="2.00" shape="3403.99,2411.20 3404.87,2406.24"/>
    </edge>
    <edge id=":11010529699_3" function="internal">
        <lane id=":11010529699_3_0" index="0" allow="bicycle" speed="2.89" length="1.27" width="2.00" shape="3403.99,2411.20 3404.61,2410.55 3404.97,2410.45"/>
    </edge>
    <edge id=":11010529699_5" function="internal">
        <lane id=":11010529699_5_0" index="0" allow="bicycle" speed="2.89" length="1.65" width="2.00" shape="3404.97,2410.45 3405.15,2410.39 3405.60,2410.73 3405.96,2411.55"/>
    </edge>
    <edge id=":11012358020_0" function="internal">
        <lane id=":11012358020_0_0" index="0" disallow="tram rail_urban rail rail_electric rail_fast ship container cable_car subway aircraft wheelchair scooter drone" speed="8.33" length="5.08" shape="3433.57,2542.20 3430.63,2538.06"/>
    </edge>
    <edge id=":11012358021_0" function="internal">
        <lane id=":11012358021_0_0" index="0" allow="bicycle" speed="5.56" length="5.08" width="2.00" shape="3435.46,2541.00 3432.53,2536.85"/>
    </edge>
    <edge id=":11012358021_1" function="internal">
        <lane id=":11012358021_1_0" index="0" allow="bicycle" speed="2.89" length="1.27" width="2.00" shape="3435.46,2541.00 3435.43,2540.10 3435.61,2539.77"/>
    </edge>
    <edge id=":11012358021_4" function="internal">
        <lane id=":11012358021_4_0" index="0" allow="bicycle" speed="2.89" length="1.65" width="2.00" shape="3435.61,2539.77 3435.70,2539.61 3436.25,2539.52 3437.09,2539.85"/>
    </edge>
    <edge id=":11012358021_2" function="internal">
        <lane id=":11012358021_2_0" index="0" allow="bicycle" speed="5.56" length="5.08" width="2.00" shape="3434.17,2535.70 3437.09,2539.85"/>
    </edge>
    <edge id=":11012358021_3" function="internal">
        <lane id=":11012358021_3_0" index="0" allow="bicycle" speed="2.89" length="1.27" width="2.00" shape="3434.17,2535.70 3434.19,2536.60 3434.01,2536.92"/>
    </edge>
    <edge id=":11012358021_5" function="internal">
        <lane id=":11012358021_5_0" index="0" allow="bicycle" speed="2.89" length="1.65" width="2.00" shape="3434.01,2536.92 3433.92,2537.09 3433.37,2537.17 3432.53,2536.85"/>
    </edge>
    <edge id=":11012358113_0" function="internal">
        <lane id=":11012358113_0_0" index="0" allow="bus bicycle" speed="8.33" length="0.28" shape="3526.58,2842.34 3526.55,2842.62"/>
    </edge>
    <edge id=":11012358113_1" function="internal">
        <lane id=":11012358113_1_0" index="0" disallow="tram rail_urban rail rail_electric rail_fast ship container cable_car subway aircraft wheelchair scooter drone" speed="8.33" length="0.31" shape="3520.18,2841.96 3520.21,2841.65"/>
        <lane id=":11012358113_1_1" index="1" disallow="tram rail_urban rail rail_electric rail_fast ship container cable_car subway aircraft wheelchair scooter drone" speed="8.33" length="0.31" shape="3523.36,2842.29 3523.40,2842.00"/>
    </edge>
    <edge id=":11012446365_0" function="internal">
        <lane id=":11012446365_0_0" index="0" disallow="tram rail_urban rail rail_electric rail_fast ship container cable_car subway aircraft wheelchair scooter drone" speed="8.33" length="6.63" shape="3746.45,2382.90 3751.45,2387.26"/>
    </edge>
    <edge id=":11013849203_0" function="internal">
        <lane id=":11013849203_0_0" index="0" disallow="tram rail_urban rail rail_electric rail_fast ship container cable_car subway aircraft wheelchair scooter drone" speed="8.33" length="0.25" shape="2816.48,2273.45 2816.73,2273.49"/>
    </edge>
    <edge id=":11015526648_0" function="internal">
        <lane id=":11015526648_0_0" index="0" disallow="tram rail_urban rail rail_electric rail_fast ship container cable_car subway aircraft wheelchair scooter drone" speed="13.89" length="0.10" shape="3298.10,2581.29 3298.10,2581.29"/>
        <lane id=":11015526648_0_1" index="1" disallow="tram rail_urban rail rail_electric rail_fast ship container cable_car subway aircraft wheelchair scooter drone" speed="13.89" length="0.10" shape="3296.68,2578.42 3296.68,2578.43"/>
        <lane id=":11015526648_0_2" index="2" disallow="tram rail_urban rail rail_electric rail_fast ship container cable_car subway aircraft wheelchair scooter drone" speed="13.89" length="0.10" shape="3295.26,2575.56 3295.26,2575.56"/>
    </edge>
    <edge id=":11015526648_3" function="internal">
        <lane id=":11015526648_3_0" index="0" disallow="tram rail_urban rail rail_electric rail_fast ship container cable_car subway aircraft wheelchair scooter drone" speed="13.89" length="0.10" shape="3291.01,2566.95 3291.01,2566.95"/>
        <lane id=":11015526648_3_1" index="1" disallow="tram rail_urban rail rail_electric rail_fast ship container cable_car subway aircraft wheelchair scooter drone" speed="13.89" length="0.10" shape="3292.43,2569.82 3292.43,2569.82"/>
        <lane id=":11015526648_3_2" index="2" disallow="tram rail_urban rail rail_electric rail_fast ship container cable_car subway aircraft wheelchair scooter drone" speed="13.89" length="0.10" shape="3293.85,2572.69 3293.85,2572.69"/>
    </edge>
    <edge id=":11015558770_0" function="internal">
        <lane id=":11015558770_0_0" index="0" allow="bicycle" speed="5.56" length="4.67" width="2.00" shape="3424.95,2360.18 3422.57,2364.20"/>
    </edge>
    <edge id=":11015558770_1" function="internal">
        <lane id=":11015558770_1_0" index="0" allow="bicycle" speed="2.89" length="1.27" width="2.00" shape="3424.95,2360.18 3424.14,2360.57 3423.77,2360.54"/>
    </edge>
    <edge id=":11015558770_4" function="internal">
        <lane id=":11015558770_4_0" index="0" allow="bicycle" speed="2.89" length="1.65" width="2.00" shape="3423.77,2360.54 3423.58,2360.53 3423.27,2360.06 3423.23,2359.16"/>
    </edge>
    <edge id=":11015558770_2" function="internal">
        <lane id=":11015558770_2_0" index="0" allow="bicycle" speed="5.56" length="4.67" width="2.00" shape="3420.85,2363.18 3423.23,2359.16"/>
    </edge>
    <edge id=":11015558770_3" function="internal">
        <lane id=":11015558770_3_0" index="0" allow="bicycle" speed="2.89" length="1.27" width="2.00" shape="3420.85,2363.18 3421.66,2362.79 3422.03,2362.82"/>
    </edge>
    <edge id=":11015558770_5" function="internal">
        <lane id=":11015558770_5_0" index="0" allow="bicycle" speed="2.89" length="1.65" width="2.00" shape="3422.03,2362.82 3422.22,2362.83 3422.52,2363.30 3422.57,2364.20"/>
    </edge>
    <edge id=":11015661164_0" function="internal">
        <lane id=":11015661164_0_0" index="0" allow="pedestrian delivery bicycle" speed="5.56" length="9.52" shape="3707.37,2543.35 3706.34,2540.82 3706.20,2538.91 3706.65,2536.92 3707.38,2534.18"/>
    </edge>
    <edge id=":11070645086_0" function="internal">
        <lane id=":11070645086_0_0" index="0" disallow="tram rail_urban rail rail_electric rail_fast ship container cable_car subway aircraft wheelchair scooter drone" speed="13.89" length="3.09" shape="3434.42,2517.93 3431.57,2519.25"/>
        <lane id=":11070645086_0_1" index="1" disallow="tram rail_urban rail rail_electric rail_fast ship container cable_car subway aircraft wheelchair scooter drone" speed="13.89" length="3.09" shape="3433.06,2515.03 3430.24,2516.34"/>
        <lane id=":11070645086_0_2" index="2" disallow="tram rail_urban rail rail_electric rail_fast ship container cable_car subway aircraft wheelchair scooter drone" speed="13.89" length="3.09" shape="3431.69,2512.14 3428.91,2513.43"/>
        <lane id=":11070645086_0_3" index="3" disallow="tram rail_urban rail rail_electric rail_fast ship container cable_car subway aircraft wheelchair scooter drone" speed="13.89" length="3.09" shape="3430.32,2509.25 3427.58,2510.52"/>
    </edge>
    <edge id=":11070645086_4" function="internal">
        <lane id=":11070645086_4_0" index="0" disallow="tram rail_urban rail rail_electric rail_fast ship container cable_car subway aircraft wheelchair scooter drone" speed="13.89" length="2.91" shape="3422.26,2498.88 3424.85,2497.68"/>
        <lane id=":11070645086_4_1" index="1" disallow="tram rail_urban rail rail_electric rail_fast ship container cable_car subway aircraft wheelchair scooter drone" speed="13.89" length="2.91" shape="3423.59,2501.79 3426.22,2500.57"/>
        <lane id=":11070645086_4_2" index="2" disallow="tram rail_urban rail rail_electric rail_fast ship container cable_car subway aircraft wheelchair scooter drone" speed="13.89" length="2.91" shape="3424.92,2504.70 3427.58,2503.46"/>
        <lane id=":11070645086_4_3" index="3" disallow="tram rail_urban rail rail_electric rail_fast ship container cable_car subway aircraft wheelchair scooter drone" speed="13.89" length="2.91" shape="3426.25,2507.61 3428.95,2506.36"/>
    </edge>
    <edge id=":11070666341_0" function="internal">
        <lane id=":11070666341_0_0" index="0" allow="bicycle" speed="5.56" length="5.10" width="2.00" shape="3498.30,2590.53 3493.72,2588.30"/>
    </edge>
    <edge id=":11070666341_1" function="internal">
        <lane id=":11070666341_1_0" index="0" allow="bicycle" speed="2.89" length="1.27" width="2.00" shape="3498.30,2590.53 3497.84,2589.75 3497.84,2589.38"/>
    </edge>
    <edge id=":11070666341_4" function="internal">
        <lane id=":11070666341_4_0" index="0" allow="bicycle" speed="2.89" length="1.65" width="2.00" shape="3497.84,2589.38 3497.83,2589.19 3498.28,2588.85 3499.17,2588.73"/>
    </edge>
    <edge id=":11070666341_2" function="internal">
        <lane id=":11070666341_2_0" index="0" allow="bicycle" speed="5.56" length="5.09" width="2.00" shape="3494.59,2586.50 3499.17,2588.73"/>
    </edge>
    <edge id=":11070666341_3" function="internal">
        <lane id=":11070666341_3_0" index="0" allow="bicycle" speed="2.89" length="1.27" width="2.00" shape="3494.59,2586.50 3495.05,2587.28 3495.05,2587.65"/>
    </edge>
    <edge id=":11070666341_5" function="internal">
        <lane id=":11070666341_5_0" index="0" allow="bicycle" speed="2.89" length="1.65" width="2.00" shape="3495.05,2587.65 3495.05,2587.84 3494.61,2588.18 3493.72,2588.30"/>
    </edge>
    <edge id=":11070666343_0" function="internal">
        <lane id=":11070666343_0_0" index="0" allow="bicycle" speed="5.56" length="5.10" width="2.00" shape="3474.27,2577.31 3470.14,2574.31"/>
    </edge>
    <edge id=":11070666343_1" function="internal">
        <lane id=":11070666343_1_0" index="0" allow="bicycle" speed="2.89" length="1.27" width="2.00" shape="3474.27,2577.31 3473.95,2576.46 3474.01,2576.10"/>
    </edge>
    <edge id=":11070666343_4" function="internal">
        <lane id=":11070666343_4_0" index="0" allow="bicycle" speed="2.89" length="1.65" width="2.00" shape="3474.01,2576.10 3474.05,2575.91 3474.54,2575.65 3475.44,2575.69"/>
    </edge>
    <edge id=":11070666343_2" function="internal">
        <lane id=":11070666343_2_0" index="0" allow="bicycle" speed="5.56" length="5.10" width="2.00" shape="3471.31,2572.69 3475.44,2575.69"/>
    </edge>
    <edge id=":11070666343_3" function="internal">
        <lane id=":11070666343_3_0" index="0" allow="bicycle" speed="2.89" length="1.27" width="2.00" shape="3471.31,2572.69 3471.63,2573.54 3471.57,2573.90"/>
    </edge>
    <edge id=":11070666343_5" function="internal">
        <lane id=":11070666343_5_0" index="0" allow="bicycle" speed="2.89" length="1.65" width="2.00" shape="3471.57,2573.90 3471.54,2574.09 3471.04,2574.35 3470.14,2574.31"/>
    </edge>
    <edge id=":11070666344_0" function="internal">
        <lane id=":11070666344_0_0" index="0" allow="bicycle" speed="5.56" length="5.11" width="2.00" shape="3408.97,2490.47 3407.38,2485.61"/>
    </edge>
    <edge id=":11070666344_1" function="internal">
        <lane id=":11070666344_1_0" index="0" allow="bicycle" speed="2.89" length="1.27" width="2.00" shape="3408.97,2490.47 3409.22,2489.60 3409.48,2489.34"/>
    </edge>
    <edge id=":11070666344_4" function="internal">
        <lane id=":11070666344_4_0" index="0" allow="bicycle" speed="2.89" length="1.65" width="2.00" shape="3409.48,2489.34 3409.61,2489.21 3410.17,2489.29 3410.87,2489.84"/>
    </edge>
    <edge id=":11070666344_2" function="internal">
        <lane id=":11070666344_2_0" index="0" allow="bicycle" speed="5.56" length="5.11" width="2.00" shape="3409.28,2484.99 3410.87,2489.84"/>
    </edge>
    <edge id=":11070666344_3" function="internal">
        <lane id=":11070666344_3_0" index="0" allow="bicycle" speed="2.89" length="1.27" width="2.00" shape="3409.28,2484.99 3409.04,2485.86 3408.77,2486.12"/>
    </edge>
    <edge id=":11070666344_5" function="internal">
        <lane id=":11070666344_5_0" index="0" allow="bicycle" speed="2.89" length="1.65" width="2.00" shape="3408.77,2486.12 3408.64,2486.25 3408.09,2486.17 3407.38,2485.61"/>
    </edge>
    <edge id=":11070685414_0" function="internal">
        <lane id=":11070685414_0_0" index="0" allow="bicycle" speed="5.56" length="5.82" width="2.00" shape="3540.78,2603.10 3535.07,2601.96"/>
    </edge>
    <edge id=":11070685414_1" function="internal">
        <lane id=":11070685414_1_0" index="0" allow="bicycle" speed="2.89" length="1.26" width="2.00" shape="3540.78,2603.10 3540.14,2602.46 3540.05,2602.11"/>
    </edge>
    <edge id=":11070685414_4" function="internal">
        <lane id=":11070685414_4_0" index="0" allow="bicycle" speed="2.89" length="1.66" width="2.00" shape="3540.05,2602.11 3540.00,2601.92 3540.34,2601.48 3541.18,2601.14"/>
    </edge>
    <edge id=":11070685414_2" function="internal">
        <lane id=":11070685414_2_0" index="0" allow="bicycle" speed="5.56" length="5.83" width="2.00" shape="3535.47,2600.00 3541.18,2601.14"/>
    </edge>
    <edge id=":11070685414_3" function="internal">
        <lane id=":11070685414_3_0" index="0" allow="bicycle" speed="2.89" length="1.27" width="2.00" shape="3535.47,2600.00 3536.10,2600.64 3536.20,2600.99"/>
    </edge>
    <edge id=":11070685414_5" function="internal">
        <lane id=":11070685414_5_0" index="0" allow="bicycle" speed="2.89" length="1.65" width="2.00" shape="3536.20,2600.99 3536.25,2601.18 3535.91,2601.62 3535.07,2601.96"/>
    </edge>
    <edge id=":11070685415_0" function="internal">
        <lane id=":11070685415_0_0" index="0" allow="bicycle" speed="5.56" length="5.03" width="2.00" shape="3564.32,2605.57 3562.83,2605.59 3561.81,2605.50 3560.79,2605.36 3559.30,2605.22"/>
    </edge>
    <edge id=":11070685415_1" function="internal">
        <lane id=":11070685415_1_0" index="0" allow="bicycle" speed="2.89" length="1.15" width="2.00" shape="3564.32,2605.57 3563.60,2605.02 3563.51,2604.80"/>
    </edge>
    <edge id=":11070685415_4" function="internal">
        <lane id=":11070685415_4_0" index="0" allow="bicycle" speed="2.89" length="1.78" width="2.00" shape="3563.51,2604.80 3563.39,2604.50 3563.67,2604.02 3564.46,2603.57"/>
    </edge>
    <edge id=":11070685415_2" function="internal">
        <lane id=":11070685415_2_0" index="0" allow="bicycle" speed="5.56" length="5.03" width="2.00" shape="3559.45,2603.22 3560.93,2603.37 3561.95,2603.50 3562.97,2603.59 3564.46,2603.57"/>
    </edge>
    <edge id=":11070685415_3" function="internal">
        <lane id=":11070685415_3_0" index="0" allow="bicycle" speed="2.89" length="1.31" width="2.00" shape="3559.45,2603.22 3560.16,2603.78 3560.32,2604.16"/>
    </edge>
    <edge id=":11070685415_5" function="internal">
        <lane id=":11070685415_5_0" index="0" allow="bicycle" speed="2.89" length="1.61" width="2.00" shape="3560.32,2604.16 3560.37,2604.29 3560.09,2604.77 3559.30,2605.22"/>
    </edge>
    <edge id=":11070685417_0" function="internal">
        <lane id=":11070685417_0_0" index="0" allow="bicycle" speed="5.56" length="5.40" width="2.00" shape="3628.18,2592.83 3623.14,2594.77"/>
    </edge>
    <edge id=":11070685417_1" function="internal">
        <lane id=":11070685417_1_0" index="0" allow="bicycle" speed="2.89" length="1.27" width="2.00" shape="3628.18,2592.83 3627.30,2592.63 3627.03,2592.38"/>
    </edge>
    <edge id=":11070685417_4" function="internal">
        <lane id=":11070685417_4_0" index="0" allow="bicycle" speed="2.89" length="1.65" width="2.00" shape="3627.03,2592.38 3626.89,2592.26 3626.94,2591.70 3627.46,2590.96"/>
    </edge>
    <edge id=":11070685417_2" function="internal">
        <lane id=":11070685417_2_0" index="0" allow="bicycle" speed="5.56" length="5.40" width="2.00" shape="3622.43,2592.90 3627.46,2590.96"/>
    </edge>
    <edge id=":11070685417_3" function="internal">
        <lane id=":11070685417_3_0" index="0" allow="bicycle" speed="2.89" length="1.27" width="2.00" shape="3622.43,2592.90 3623.30,2593.10 3623.57,2593.34"/>
    </edge>
    <edge id=":11070685417_5" function="internal">
        <lane id=":11070685417_5_0" index="0" allow="bicycle" speed="2.89" length="1.66" width="2.00" shape="3623.57,2593.34 3623.72,2593.48 3623.66,2594.03 3623.14,2594.77"/>
    </edge>
    <edge id=":11070685419_0" function="internal">
        <lane id=":11070685419_0_0" index="0" allow="bicycle" speed="5.56" length="5.15" width="2.00" shape="3655.08,2580.46 3653.79,2581.26 3652.84,2581.70 3651.86,2582.08 3650.46,2582.70"/>
    </edge>
    <edge id=":11070685419_1" function="internal">
        <lane id=":11070685419_1_0" index="0" allow="bicycle" speed="2.90" length="1.08" width="2.00" shape="3655.08,2580.46 3654.17,2580.33 3654.04,2580.22"/>
    </edge>
    <edge id=":11070685419_4" function="internal">
        <lane id=":11070685419_4_0" index="0" allow="bicycle" speed="2.90" length="1.87" width="2.00" shape="3654.04,2580.22 3653.73,2579.98 3653.74,2579.42 3654.20,2578.63"/>
    </edge>
    <edge id=":11070685419_2" function="internal">
        <lane id=":11070685419_2_0" index="0" allow="bicycle" speed="5.56" length="5.15" width="2.00" shape="3649.59,2580.89 3650.99,2580.28 3651.97,2579.89 3652.91,2579.44 3654.20,2578.63"/>
    </edge>
    <edge id=":11070685419_3" function="internal">
        <lane id=":11070685419_3_0" index="0" allow="bicycle" speed="2.89" length="1.33" width="2.00" shape="3649.59,2580.89 3650.48,2581.02 3650.82,2581.28"/>
    </edge>
    <edge id=":11070685419_5" function="internal">
        <lane id=":11070685419_5_0" index="0" allow="bicycle" speed="2.89" length="1.59" width="2.00" shape="3650.82,2581.28 3650.93,2581.36 3650.92,2581.92 3650.46,2582.70"/>
    </edge>
    <edge id=":11070685429_0" function="internal">
        <lane id=":11070685429_0_0" index="0" allow="bicycle" speed="5.56" length="5.17" width="2.00" shape="3715.99,2511.22 3715.32,2512.60 3714.79,2513.51 3714.20,2514.38 3713.37,2515.68"/>
    </edge>
    <edge id=":11070685429_1" function="internal">
        <lane id=":11070685429_1_0" index="0" allow="bicycle" speed="2.89" length="1.11" width="2.00" shape="3715.99,2511.22 3715.17,2511.61 3714.96,2511.59"/>
    </edge>
    <edge id=":11070685429_4" function="internal">
        <lane id=":11070685429_4_0" index="0" allow="bicycle" speed="2.89" length="1.83" width="2.00" shape="3714.96,2511.59 3714.60,2511.57 3714.30,2511.09 3714.26,2510.18"/>
    </edge>
    <edge id=":11070685429_2" function="internal">
        <lane id=":11070685429_2_0" index="0" allow="bicycle" speed="5.56" length="5.17" width="2.00" shape="3711.66,2514.64 3712.48,2513.35 3713.07,2512.47 3713.60,2511.56 3714.26,2510.18"/>
    </edge>
    <edge id=":11070685429_3" function="internal">
        <lane id=":11070685429_3_0" index="0" allow="bicycle" speed="2.89" length="1.31" width="2.00" shape="3711.66,2514.64 3712.48,2514.26 3712.88,2514.29"/>
    </edge>
    <edge id=":11070685429_5" function="internal">
        <lane id=":11070685429_5_0" index="0" allow="bicycle" speed="2.89" length="1.61" width="2.00" shape="3712.88,2514.29 3713.03,2514.30 3713.33,2514.78 3713.37,2515.68"/>
    </edge>
    <edge id=":11070685436_0" function="internal">
        <lane id=":11070685436_0_0" index="0" allow="bicycle" speed="5.56" length="0.30" width="2.00" shape="3637.27,2292.91 3636.99,2292.79"/>
    </edge>
    <edge id=":11070685436_1" function="internal">