<?xml version="1.0" encoding="UTF-8"?>

<!-- generated on 2024-09-03 01:37:49 by Eclipse SUMO netconvert Version 1.20.0
<configuration xmlns:xsi="http://www.w3.org/2001/XMLSchema-instance" xsi:noNamespaceSchemaLocation="http://sumo.dlr.de/xsd/netconvertConfiguration.xsd">

    <input>
        <osm-files value="train_files/roundabout/middle/osm_files/map(33).osm"/>
    </input>

    <output>
        <output-file value="train_files/roundabout/middle/outputs/map(33)_dict/map(33)/map(33).net.xml"/>
    </output>

    <projection>
        <proj.utm value="true"/>
    </projection>

    <building_defaults>
        <default.junctions.keep-clear value="false"/>
    </building_defaults>

</configuration>
-->

<net version="1.20" junctionCornerDetail="5" limitTurnSpeed="5.50" xmlns:xsi="http://www.w3.org/2001/XMLSchema-instance" xsi:noNamespaceSchemaLocation="http://sumo.dlr.de/xsd/net_file.xsd">

    <location netOffset="-466519.27,-5376532.95" convBoundary="0.00,0.00,909.63,1809.11" origBoundary="2.546298,48.541019,2.558630,48.557293" projParameter="+proj=utm +zone=31 +ellps=WGS84 +datum=WGS84 +units=m +no_defs"/>

    <type id="highway.footway" priority="1" numLanes="1" speed="2.78" allow="pedestrian" oneway="1" width="2.00"/>
    <type id="highway.path" priority="1" numLanes="1" speed="5.56" allow="pedestrian bicycle" oneway="0" width="2.00"/>
    <type id="highway.residential" priority="3" numLanes="1" speed="13.89" disallow="tram rail_urban rail rail_electric rail_fast ship container cable_car subway aircraft wheelchair scooter drone" oneway="0"/>
    <type id="highway.secondary" priority="11" numLanes="1" speed="27.78" disallow="tram rail_urban rail rail_electric rail_fast ship container cable_car subway aircraft wheelchair scooter drone" oneway="0"/>
    <type id="highway.secondary_link" priority="6" numLanes="1" speed="22.22" disallow="tram rail_urban rail rail_electric rail_fast ship container cable_car subway aircraft wheelchair scooter drone" oneway="0"/>
    <type id="highway.tertiary" priority="10" numLanes="1" speed="22.22" disallow="tram rail_urban rail rail_electric rail_fast ship container cable_car subway aircraft wheelchair scooter drone" oneway="0"/>

    <edge id=":11414575491_0" function="internal">
        <lane id=":11414575491_0_0" index="0" disallow="tram rail_urban rail rail_electric rail_fast ship container cable_car subway aircraft wheelchair scooter drone" speed="13.89" length="5.73" shape="144.14,1285.89 149.84,1286.47"/>
    </edge>
    <edge id=":11414575491_1" function="internal">
        <lane id=":11414575491_1_0" index="0" disallow="tram rail_urban rail rail_electric rail_fast ship container cable_car subway aircraft wheelchair scooter drone" speed="7.33" length="4.97" shape="144.14,1285.89 144.97,1286.39 145.86,1287.50 146.69,1288.73 147.32,1289.63"/>
    </edge>
    <edge id=":11981177659_0" function="internal">
        <lane id=":11981177659_0_0" index="0" disallow="tram rail_urban rail rail_electric rail_fast ship container cable_car subway aircraft wheelchair scooter drone" speed="13.89" length="3.75" shape="99.49,1321.43 98.06,1324.90"/>
    </edge>
    <edge id=":11981177659_1" function="internal">
        <lane id=":11981177659_1_0" index="0" disallow="tram rail_urban rail rail_electric rail_fast ship container cable_car subway aircraft wheelchair scooter drone" speed="5.45" length="3.80" shape="99.49,1321.43 99.18,1322.30 98.79,1323.33 98.30,1324.20 97.64,1324.60"/>
    </edge>
    <edge id=":11981177660_0" function="internal">
        <lane id=":11981177660_0_0" index="0" disallow="tram rail_urban rail rail_electric rail_fast ship container cable_car subway aircraft wheelchair scooter drone" speed="5.31" length="5.70" shape="96.35,1325.90 90.69,1326.61"/>
    </edge>
    <edge id=":11981177660_1" function="internal">
        <lane id=":11981177660_1_0" index="0" disallow="tram rail_urban rail rail_electric rail_fast ship container cable_car subway aircraft wheelchair scooter drone" speed="13.89" length="8.40" shape="96.35,1325.90 95.91,1317.51"/>
    </edge>
    <edge id=":11981177660_2" function="internal">
        <lane id=":11981177660_2_0" index="0" disallow="tram rail_urban rail rail_electric rail_fast ship container cable_car subway aircraft wheelchair scooter drone" speed="8.33" length="7.09" shape="97.44,1324.62 95.40,1325.04 94.07,1325.66 92.73,1326.25 90.69,1326.61"/>
    </edge>
    <edge id=":11981177660_3" function="internal">
        <lane id=":11981177660_3_0" index="0" disallow="tram rail_urban rail rail_electric rail_fast ship container cable_car subway aircraft wheelchair scooter drone" speed="5.91" length="7.48" shape="97.44,1324.62 96.91,1324.22 96.48,1322.90 96.14,1320.66 95.91,1317.51"/>
    </edge>
    <edge id=":11981177660_4" function="internal">
        <lane id=":11981177660_4_0" index="0" disallow="tram rail_urban rail rail_electric rail_fast ship container cable_car subway aircraft wheelchair scooter drone" speed="6.54" length="9.04" shape="90.58,1323.41 93.02,1322.91 94.72,1321.76 95.68,1319.96 95.91,1317.51"/>
    </edge>
    <edge id=":11981177660_5" function="internal">
        <lane id=":11981177660_5_0" index="0" disallow="tram rail_urban rail rail_electric rail_fast ship container cable_car subway aircraft wheelchair scooter drone" speed="3.65" length="4.68" shape="90.58,1323.41 91.81,1324.17 92.24,1324.96 91.86,1325.77 90.69,1326.61"/>
    </edge>
    <edge id=":1597557978_0" function="internal">
        <lane id=":1597557978_0_0" index="0" disallow="tram rail_urban rail rail_electric rail_fast ship container cable_car subway aircraft wheelchair scooter drone" speed="7.39" length="6.21" shape="108.42,1305.83 107.11,1306.35 105.97,1307.22 104.99,1308.46 104.18,1310.06"/>
    </edge>
    <edge id=":1597557978_1" function="internal">
        <lane id=":1597557978_1_0" index="0" disallow="tram rail_urban rail rail_electric rail_fast ship container cable_car subway aircraft wheelchair scooter drone" speed="9.32" length="6.67" shape="108.42,1305.83 106.50,1306.27 105.12,1306.39 103.78,1306.10 102.01,1305.29"/>
    </edge>
    <edge id=":1597557993_0" function="internal">
        <lane id=":1597557993_0_0" index="0" disallow="tram rail_urban rail rail_electric rail_fast ship container cable_car subway aircraft wheelchair scooter drone" speed="14.22" length="12.26" shape="156.21,1299.97 153.11,1298.51 150.61,1296.86 148.10,1295.76 145.01,1295.98"/>
    </edge>
    <edge id=":1597557993_1" function="internal">
        <lane id=":1597557993_1_0" index="0" disallow="tram rail_urban rail rail_electric rail_fast ship container cable_car subway aircraft wheelchair scooter drone" speed="3.92" length="5.26" shape="156.21,1299.97 155.86,1298.38 156.16,1297.42 157.11,1297.09 158.71,1297.38"/>
    </edge>
    <edge id=":1597557993_2" function="internal">
        <lane id=":1597557993_2_0" index="0" disallow="tram rail_urban rail rail_electric rail_fast ship container cable_car subway aircraft wheelchair scooter drone" speed="6.91" length="20.72" shape="160.18,1292.32 152.36,1294.14 149.51,1295.59 151.63,1296.67 158.71,1297.38"/>
    </edge>
    <edge id=":1597557993_3" function="internal">
        <lane id=":1597557993_3_0" index="0" disallow="tram rail_urban rail rail_electric rail_fast ship container cable_car subway aircraft wheelchair scooter drone" speed="20.83" length="15.61" shape="160.18,1292.32 156.41,1293.09 152.54,1293.95 148.70,1294.91 145.01,1295.98"/>
    </edge>
    <edge id=":1597557993_4" function="internal">
        <lane id=":1597557993_4_0" index="0" disallow="tram rail_urban rail rail_electric rail_fast ship container cable_car subway aircraft wheelchair scooter drone" speed="11.82" length="13.93" shape="147.44,1289.78 150.39,1293.00 153.26,1295.34 156.03,1296.80 158.71,1297.38"/>
    </edge>
    <edge id=":1597557993_5" function="internal">
        <lane id=":1597557993_5_0" index="0" disallow="tram rail_urban rail rail_electric rail_fast ship container cable_car subway aircraft wheelchair scooter drone" speed="5.66" length="8.50" shape="147.44,1289.78 148.62,1291.79 148.61,1293.49 147.40,1294.89 145.01,1295.98"/>
    </edge>
    <edge id=":2448499637_0" function="internal">
        <lane id=":2448499637_0_0" index="0" allow="pedestrian bicycle" speed="4.03" length="3.44" width="1.50" shape="144.25,1282.69 144.02,1283.60 143.69,1284.63 143.56,1285.49 143.94,1285.88"/>
    </edge>
    <edge id=":2448499637_1" function="internal">
        <lane id=":2448499637_1_0" index="0" allow="pedestrian bicycle" speed="2.50" length="2.19" width="1.50" shape="144.25,1282.69 143.83,1283.22 143.44,1283.37 143.08,1283.15 142.76,1282.55"/>
    </edge>
    <edge id=":2448499637_2" function="internal">
        <lane id=":2448499637_2_0" index="0" allow="pedestrian bicycle" speed="4.67" length="4.39" width="1.50" shape="140.12,1285.30 141.17,1285.28 141.95,1284.81 142.48,1283.90 142.76,1282.55"/>
    </edge>
    <edge id=":2448499637_3" function="internal">
        <lane id=":2448499637_3_0" index="0" disallow="tram rail_urban rail rail_electric rail_fast ship container cable_car subway aircraft wheelchair scooter drone" speed="13.89" length="3.86" shape="140.12,1285.30 141.25,1285.51 142.02,1285.66 142.80,1285.78 143.94,1285.88"/>
    </edge>
    <edge id=":270820643_0" function="internal">
        <lane id=":270820643_0_0" index="0" disallow="tram rail_urban rail rail_electric rail_fast ship container cable_car subway aircraft wheelchair scooter drone" speed="3.65" length="4.67" shape="226.18,1809.32 225.22,1810.40 224.38,1810.69 223.64,1810.19 223.01,1808.90"/>
    </edge>
    <edge id=":270820648_0" function="internal">
        <lane id=":270820648_0_0" index="0" disallow="tram rail_urban rail rail_electric rail_fast ship container cable_car subway aircraft wheelchair scooter drone" speed="18.05" length="1.84" shape="94.83,1327.12 96.36,1326.10"/>
    </edge>
    <edge id=":270820648_1" function="internal">
        <lane id=":270820648_1_0" index="0" disallow="tram rail_urban rail rail_electric rail_fast ship container cable_car subway aircraft wheelchair scooter drone" speed="3.65" length="1.32" shape="94.83,1327.12 95.52,1325.99"/>
    </edge>
    <edge id=":270820648_3" function="internal">
        <lane id=":270820648_3_0" index="0" disallow="tram rail_urban rail rail_electric rail_fast ship container cable_car subway aircraft wheelchair scooter drone" speed="3.65" length="3.35" shape="95.52,1325.99 95.58,1325.89 96.36,1325.46 97.18,1325.83 98.03,1326.99"/>
    </edge>
    <edge id=":270820648_2" function="internal">
        <lane id=":270820648_2_0" index="0" disallow="tram rail_urban rail rail_electric rail_fast ship container cable_car subway aircraft wheelchair scooter drone" speed="8.21" length="1.95" shape="97.98,1325.08 97.83,1325.62 97.85,1326.01 97.95,1326.42 98.03,1326.99"/>
    </edge>
    <edge id=":2801363012_0" function="internal">
        <lane id=":2801363012_0_0" index="0" allow="pedestrian bicycle" speed="5.56" length="4.41" width="1.50" shape="124.77,1259.03 124.01,1257.97 123.50,1257.23 123.04,1256.46 122.41,1255.31"/>
    </edge>
    <edge id=":2801363012_1" function="internal">
        <lane id=":2801363012_1_0" index="0" allow="pedestrian bicycle" speed="2.50" length="2.19" width="1.50" shape="124.77,1259.03 124.75,1258.36 124.94,1257.99 125.35,1257.92 125.99,1258.16"/>
    </edge>
    <edge id=":2801363012_2" function="internal">
        <lane id=":2801363012_2_0" index="0" allow="pedestrian bicycle" speed="5.56" length="4.22" width="1.50" shape="123.73,1254.60 124.33,1255.70 124.77,1256.43 125.26,1257.14 125.99,1258.16"/>
    </edge>
    <edge id=":2801363012_3" function="internal">
        <lane id=":2801363012_3_0" index="0" allow="pedestrian bicycle" speed="2.50" length="2.19" width="1.50" shape="123.73,1254.60 123.67,1255.27 123.43,1255.62 123.01,1255.63 122.41,1255.31"/>
    </edge>
    <edge id=":2801363012_4" function="internal">
        <lane id=":2801363012_4_0" index="0" allow="pedestrian bicycle" speed="4.48" length="3.72" width="1.50" shape="121.64,1258.60 122.36,1257.86 122.73,1257.07 122.74,1256.22 122.41,1255.31"/>
    </edge>
    <edge id=":2801363012_5" function="internal">
        <lane id=":2801363012_5_0" index="0" allow="pedestrian bicycle" speed="4.71" length="4.94" width="1.50" shape="121.64,1258.60 123.03,1257.69 124.21,1257.31 125.20,1257.47 125.99,1258.16"/>
    </edge>
    <edge id=":2801363015_0" function="internal">
        <lane id=":2801363015_0_0" index="0" allow="pedestrian bicycle" speed="4.03" length="3.65" width="1.50" shape="147.21,1275.97 146.20,1275.91 145.44,1276.20 144.94,1276.84 144.71,1277.83"/>
    </edge>
    <edge id=":2801363015_1" function="internal">
        <lane id=":2801363015_1_0" index="0" allow="pedestrian bicycle" speed="5.56" length="5.88" width="1.50" shape="147.21,1275.97 145.50,1275.62 144.34,1275.33 143.22,1274.90 141.65,1274.15"/>
    </edge>
    <edge id=":2801363015_2" function="internal">
        <lane id=":2801363015_2_0" index="0" allow="pedestrian bicycle" speed="2.50" length="2.19" width="1.50" shape="147.21,1275.97 146.74,1275.49 146.63,1275.09 146.89,1274.76 147.51,1274.50"/>
    </edge>
    <edge id=":2801363015_3" function="internal">
        <lane id=":2801363015_3_0" index="0" allow="pedestrian bicycle" speed="5.56" length="5.49" width="1.50" shape="142.32,1272.81 143.79,1273.51 144.83,1273.90 145.92,1274.18 147.51,1274.50"/>
    </edge>
    <edge id=":2801363015_4" function="internal">
        <lane id=":2801363015_4_0" index="0" allow="pedestrian bicycle" speed="5.56" length="5.94" width="1.50" shape="142.32,1272.81 143.49,1273.63 144.28,1274.74 144.69,1276.14 144.71,1277.83"/>
    </edge>
    <edge id=":2801363015_5" function="internal">
        <lane id=":2801363015_5_0" index="0" allow="pedestrian bicycle" speed="2.50" length="2.19" width="1.50" shape="142.32,1272.81 142.66,1273.39 142.66,1273.81 142.32,1274.07 141.65,1274.15"/>
    </edge>
    <edge id=":2801363015_6" function="internal">
        <lane id=":2801363015_6_0" index="0" allow="pedestrian bicycle" speed="5.11" length="4.13" width="1.50" shape="143.21,1277.69 143.21,1276.48 142.95,1275.48 142.43,1274.71 141.65,1274.15"/>
    </edge>
    <edge id=":2801363015_7" function="internal">
        <lane id=":2801363015_7_0" index="0" allow="pedestrian bicycle" speed="5.14" length="6.27" width="1.50" shape="143.21,1277.69 143.62,1276.00 144.47,1274.90 145.77,1274.40 147.51,1274.50"/>
    </edge>
    <edge id=":2801363015_8" function="internal">
        <lane id=":2801363015_8_0" index="0" allow="pedestrian bicycle" speed="2.50" length="2.19" width="1.50" shape="143.21,1277.69 143.64,1277.17 144.03,1277.01 144.38,1277.24 144.71,1277.83"/>
    </edge>
    <edge id=":2801363016_0" function="internal">
        <lane id=":2801363016_0_0" index="0" disallow="tram rail_urban rail rail_electric rail_fast ship container cable_car subway aircraft wheelchair scooter drone" speed="20.83" length="4.64" shape="144.82,1296.03 140.38,1297.42"/>
    </edge>
    <edge id=":3315674419_0" function="internal">
        <lane id=":3315674419_0_0" index="0" allow="pedestrian bicycle" speed="2.50" length="2.19" width="1.50" shape="906.50,1283.30 905.97,1283.72 905.56,1283.79 905.26,1283.49 905.07,1282.85"/>
    </edge>
    <edge id=":3315674426_0" function="internal">
        <lane id=":3315674426_0_0" index="0" disallow="tram rail_urban rail rail_electric rail_fast ship container cable_car subway aircraft wheelchair scooter drone" speed="3.65" length="4.67" shape="873.08,1289.00 873.89,1290.20 873.95,1291.09 873.27,1291.68 871.86,1291.96"/>
    </edge>
    <edge id=":5304716068_0" function="internal">
        <lane id=":5304716068_0_0" index="0" disallow="tram rail_urban rail rail_electric rail_fast ship container cable_car subway aircraft wheelchair scooter drone" speed="3.65" length="4.67" shape="1.13,1341.42 -0.28,1341.70 -1.13,1341.42 -1.41,1340.57 -1.13,1339.15"/>
    </edge>
    <edge id=":5510708795_0" function="internal">
        <lane id=":5510708795_0_0" index="0" allow="pedestrian bicycle" speed="2.50" length="2.19" width="1.50" shape="230.42,2.96 229.78,2.75 229.50,2.44 229.58,2.03 230.02,1.51"/>
    </edge>
    <edge id=":571791525_0" function="internal">
        <lane id=":571791525_0_0" index="0" disallow="tram rail_urban rail rail_electric rail_fast ship container cable_car subway aircraft wheelchair scooter drone" speed="13.89" length="0.29" shape="178.76,1288.72 178.48,1288.77"/>
    </edge>
    <edge id=":571791525_1" function="internal">
        <lane id=":571791525_1_0" index="0" disallow="tram rail_urban rail rail_electric rail_fast ship container cable_car subway aircraft wheelchair scooter drone" speed="13.89" length="0.38" shape="177.87,1285.61 178.24,1285.56"/>
    </edge>
    <edge id=":571791557_0" function="internal">
        <lane id=":571791557_0_0" index="0" disallow="tram rail_urban rail rail_electric rail_fast ship container cable_car subway aircraft wheelchair scooter drone" speed="13.89" length="6.30" shape="127.35,1282.46 129.03,1283.26 130.24,1283.65 131.52,1283.87 133.37,1284.15"/>
    </edge>
    <edge id=":571791557_1" function="internal">
        <lane id=":571791557_1_0" index="0" disallow="tram rail_urban rail rail_electric rail_fast ship container cable_car subway aircraft wheelchair scooter drone" speed="8.43" length="6.17" shape="127.35,1282.46 128.83,1283.41 129.60,1284.39 130.05,1285.64 130.57,1287.40"/>
    </edge>
    <edge id=":571791589_0" function="internal">
        <lane id=":571791589_0_0" index="0" disallow="tram rail_urban rail rail_electric rail_fast ship container cable_car subway aircraft wheelchair scooter drone" speed="13.89" length="8.15" shape="95.26,1305.32 94.96,1297.17"/>
    </edge>
    <edge id=":571791589_1" function="internal">
        <lane id=":571791589_1_0" index="0" disallow="tram rail_urban rail rail_electric rail_fast ship container cable_car subway aircraft wheelchair scooter drone" speed="9.19" length="7.78" shape="99.09,1303.59 97.28,1301.67 95.99,1299.96 95.22,1298.46 94.96,1297.17"/>
    </edge>
    <edge id=":571791616_0" function="internal">
        <lane id=":571791616_0_0" index="0" disallow="tram rail_urban rail rail_electric rail_fast ship container cable_car subway aircraft wheelchair scooter drone" speed="13.89" length="9.00" shape="136.02,1298.78 127.36,1301.24"/>
    </edge>
    <edge id=":571791616_1" function="internal">
        <lane id=":571791616_1_0" index="0" disallow="tram rail_urban rail rail_electric rail_fast ship container cable_car subway aircraft wheelchair scooter drone" speed="7.15" length="7.99" shape="131.74,1295.16 131.21,1297.48 130.30,1299.27 129.02,1300.52 127.36,1301.24"/>
    </edge>
    <edge id=":618043018_0" function="internal">
        <lane id=":618043018_0_0" index="0" disallow="tram rail_urban rail rail_electric rail_fast ship container cable_car subway aircraft wheelchair scooter drone" speed="3.65" length="4.67" shape="358.68,1692.18 358.23,1693.55 357.57,1694.15 356.69,1693.98 355.59,1693.04"/>
    </edge>
    <edge id=":626563988_0" function="internal">
        <lane id=":626563988_0_0" index="0" disallow="tram rail_urban rail rail_electric rail_fast ship container cable_car subway aircraft wheelchair scooter drone" speed="7.54" length="9.72" shape="186.97,1301.88 185.48,1299.58 183.69,1298.06 181.59,1297.32 179.19,1297.37"/>
    </edge>
    <edge id=":626563988_1" function="internal">
        <lane id=":626563988_1_0" index="0" disallow="tram rail_urban rail rail_electric rail_fast ship container cable_car subway aircraft wheelchair scooter drone" speed="7.36" length="14.71" shape="186.97,1301.88 185.79,1298.09 186.45,1295.16 188.95,1293.09 193.28,1291.89"/>
    </edge>
    <edge id=":626563988_2" function="internal">
        <lane id=":626563988_2_0" index="0" disallow="tram rail_urban rail rail_electric rail_fast ship container cable_car subway aircraft wheelchair scooter drone" speed="4.00" length="5.28" shape="186.97,1301.88 187.49,1300.33 188.24,1299.66 189.23,1299.86 190.46,1300.93"/>
    </edge>
    <edge id=":626563988_3" function="internal">
        <lane id=":626563988_3_0" index="0" disallow="tram rail_urban rail rail_electric rail_fast ship container cable_car subway aircraft wheelchair scooter drone" speed="5.64" length="9.92" shape="193.74,1295.06 190.40,1295.89 188.74,1297.14 188.76,1298.82 190.46,1300.93"/>
    </edge>
    <edge id=":626563988_4" function="internal">
        <lane id=":626563988_4_0" index="0" disallow="tram rail_urban rail rail_electric rail_fast ship container cable_car subway aircraft wheelchair scooter drone" speed="13.89" length="14.74" shape="193.74,1295.06 179.19,1297.37"/>
    </edge>
    <edge id=":626563988_5" function="internal">
        <lane id=":626563988_5_0" index="0" disallow="tram rail_urban rail rail_electric rail_fast ship container cable_car subway aircraft wheelchair scooter drone" speed="3.65" length="1.44" shape="193.74,1295.06 192.44,1294.44"/>
    </edge>
    <edge id=":626563988_9" function="internal">
        <lane id=":626563988_9_0" index="0" disallow="tram rail_urban rail rail_electric rail_fast ship container cable_car subway aircraft wheelchair scooter drone" speed="3.65" length="3.23" shape="192.44,1294.44 191.93,1293.71 192.21,1292.86 193.28,1291.89"/>
    </edge>
    <edge id=":626563988_6" function="internal">
        <lane id=":626563988_6_0" index="0" disallow="tram rail_urban rail rail_electric rail_fast ship container cable_car subway aircraft wheelchair scooter drone" speed="13.89" length="14.82" shape="178.65,1294.22 193.28,1291.89"/>
    </edge>
    <edge id=":626563988_7" function="internal">
        <lane id=":626563988_7_0" index="0" disallow="tram rail_urban rail rail_electric rail_fast ship container cable_car subway aircraft wheelchair scooter drone" speed="11.05" length="2.47" shape="178.65,1294.22 180.79,1294.39 181.08,1294.52"/>
    </edge>
    <edge id=":626563988_8" function="internal">
        <lane id=":626563988_8_0" index="0" disallow="tram rail_urban rail rail_electric rail_fast ship container cable_car subway aircraft wheelchair scooter drone" speed="3.65" length="1.44" shape="178.65,1294.22 179.96,1294.80"/>
    </edge>
    <edge id=":626563988_10" function="internal">
        <lane id=":626563988_10_0" index="0" disallow="tram rail_urban rail rail_electric rail_fast ship container cable_car subway aircraft wheelchair scooter drone" speed="11.05" length="11.43" shape="181.08,1294.52 183.48,1295.57 186.70,1297.75 190.46,1300.93"/>
    </edge>
    <edge id=":626563988_11" function="internal">
        <lane id=":626563988_11_0" index="0" disallow="tram rail_urban rail rail_electric rail_fast ship container cable_car subway aircraft wheelchair scooter drone" speed="3.65" length="3.23" shape="179.96,1294.80 180.49,1295.52 180.24,1296.38 179.19,1297.37"/>
    </edge>
    <edge id=":9227124913_0" function="internal">
        <lane id=":9227124913_0_0" index="0" disallow="tram rail_urban rail rail_electric rail_fast ship container cable_car subway aircraft wheelchair scooter drone" speed="3.65" length="4.67" shape="224.12,1278.04 225.44,1278.64 225.96,1279.36 225.70,1280.22 224.64,1281.20"/>
    </edge>
    <edge id=":9434200652_0" function="internal">
        <lane id=":9434200652_0_0" index="0" disallow="tram rail_urban rail rail_electric rail_fast ship container cable_car subway aircraft wheelchair scooter drone" speed="13.89" length="8.24" shape="95.75,1276.12 96.76,1267.94"/>
    </edge>
    <edge id=":9434200652_1" function="internal">
        <lane id=":9434200652_1_0" index="0" disallow="tram rail_urban rail rail_electric rail_fast ship container cable_car subway aircraft wheelchair scooter drone" speed="7.68" length="7.56" shape="95.75,1276.12 96.21,1274.62 97.20,1273.26 98.72,1272.02 100.78,1270.91"/>
    </edge>
    <edge id=":9434200654_0" function="internal">
        <lane id=":9434200654_0_0" index="0" allow="pedestrian bicycle" speed="4.98" length="5.36" width="1.50" shape="107.26,1265.30 108.24,1266.57 109.29,1267.19 110.43,1267.16 111.65,1266.49"/>
    </edge>
    <edge id=":9434200654_1" function="internal">
        <lane id=":9434200654_1_0" index="0" disallow="tram rail_urban rail rail_electric rail_fast ship container cable_car subway aircraft wheelchair scooter drone" speed="13.89" length="6.19" shape="107.26,1265.30 108.19,1266.89 108.84,1267.97 109.56,1269.00 110.68,1270.45"/>
    </edge>
    <edge id=":9434200654_2" function="internal">
        <lane id=":9434200654_2_0" index="0" allow="pedestrian bicycle" speed="9.72" length="6.84" width="1.50" shape="105.53,1269.30 107.50,1268.84 108.83,1268.40 110.04,1267.71 111.65,1266.49"/>
    </edge>
    <edge id=":9434200654_3" function="internal">
        <lane id=":9434200654_3_0" index="0" disallow="tram rail_urban rail rail_electric rail_fast ship container cable_car subway aircraft wheelchair scooter drone" speed="6.33" length="5.57" shape="105.53,1269.30 107.20,1269.06 108.62,1269.18 109.78,1269.64 110.68,1270.45"/>
    </edge>

    <edge id="-324889326" from="3315674419" to="2801363015" priority="1" type="highway.path" shape="905.79,1283.07 907.84,1276.54 909.63,1268.75 898.72,1264.08 889.62,1261.24 825.99,1248.04 695.18,1220.90 650.19,1218.37 618.12,1219.62 539.39,1228.24 361.08,1248.17 258.29,1264.65 179.81,1277.35 159.36,1277.68 144.25,1274.60">
        <lane id="-324889326_0" index="0" allow="pedestrian bicycle" speed="5.56" length="785.43" width="1.50" shape="905.07,1282.85 907.12,1276.35 908.76,1269.20 898.46,1264.79 889.43,1261.97 825.84,1248.77 695.08,1221.64 650.18,1219.12 618.18,1220.37 539.47,1228.99 361.18,1248.91 258.41,1265.39 179.88,1278.10 159.29,1278.43 147.21,1275.97"/>
    </edge>
    <edge id="-48677989" from="618043018" to="626563988" priority="3" type="highway.residential" shape="357.14,1692.61 352.94,1677.57 336.29,1640.63 331.74,1632.26 327.08,1623.68 298.94,1571.86 290.45,1561.23 284.63,1555.32 280.56,1551.20 276.60,1544.49 263.75,1504.72 249.43,1441.86 234.98,1374.93 233.16,1350.67 232.02,1343.87 228.32,1337.71 188.45,1301.27 186.44,1297.22 185.84,1294.60">
        <lane id="-48677989_0" index="0" disallow="tram rail_urban rail rail_electric rail_fast ship container cable_car subway aircraft wheelchair scooter drone" speed="13.89" length="436.84" shape="355.59,1693.04 351.44,1678.12 334.85,1641.34 330.34,1633.02 325.68,1624.44 297.60,1572.74 289.25,1562.30 283.49,1556.44 279.28,1552.18 275.13,1545.15 262.21,1505.15 247.87,1442.20 233.39,1375.16 231.57,1350.86 230.50,1344.43 227.07,1338.74 187.15,1302.24 186.97,1301.88"/>
    </edge>
    <edge id="-48678939" from="270820648" to="270820643" priority="10" type="highway.tertiary" shape="96.49,1328.68 97.43,1351.69 101.69,1478.74 102.69,1488.15 103.83,1497.72 106.22,1508.66 107.26,1516.70 108.74,1524.09 133.56,1593.28 153.91,1650.07 161.45,1671.37 175.78,1710.24 176.36,1711.83 179.99,1722.14 186.70,1737.32 223.99,1799.74 224.44,1802.57 225.04,1805.74 224.59,1809.11">
        <lane id="-48678939_0" index="0" disallow="tram rail_urban rail rail_electric rail_fast ship container cable_car subway aircraft wheelchair scooter drone" speed="22.22" length="507.28" shape="98.03,1326.99 99.03,1351.63 103.29,1478.63 104.28,1487.97 105.41,1497.45 107.80,1508.39 108.84,1516.44 110.29,1523.66 135.07,1592.74 155.42,1649.53 162.95,1670.82 177.28,1709.69 177.87,1711.29 181.48,1721.56 188.12,1736.59 225.52,1799.19 226.02,1802.30 226.66,1805.69 226.18,1809.32"/>
        <param key="ref" value="D 50"/>
    </edge>
    <edge id="-49335236" from="3315674426" to="626563988" priority="3" type="highway.residential" shape="872.47,1290.48 867.91,1288.59 766.77,1265.67 695.88,1250.43 660.07,1244.49 644.81,1242.04 622.94,1239.02 542.57,1247.52 379.16,1266.26 185.84,1294.60">
        <lane id="-49335236_0" index="0" disallow="tram rail_urban rail rail_electric rail_fast ship container cable_car subway aircraft wheelchair scooter drone" speed="13.89" length="687.05" shape="871.86,1291.96 867.43,1290.12 766.42,1267.23 695.59,1252.00 659.81,1246.07 644.58,1243.63 622.91,1240.64 542.74,1249.11 379.37,1267.85 193.74,1295.06"/>
    </edge>
    <edge id="-578070274#0" from="2801363015" to="2448499637" priority="1" type="highway.path">
        <lane id="-578070274#0_0" index="0" allow="pedestrian bicycle" speed="5.56" length="4.88" width="1.50" shape="144.71,1277.83 144.25,1282.69"/>
    </edge>
    <edge id="-578070274#1" from="2801363012" to="2801363015" priority="1" type="highway.path" shape="124.02,1256.71 128.75,1263.27 135.22,1270.13 144.25,1274.60">
        <lane id="-578070274#1_0" index="0" allow="pedestrian bicycle" speed="5.56" length="22.38" width="1.50" shape="125.99,1258.16 129.33,1262.79 135.68,1269.52 142.32,1272.81"/>
    </edge>
    <edge id="-578070274#2" from="5510708795" to="2801363012" priority="1" type="highway.path" shape="230.22,2.24 238.31,0.00 248.76,0.22 254.32,9.91 258.75,26.27 344.86,171.94 361.98,190.51 361.59,207.67 357.32,240.12 338.68,327.50 328.40,375.72 284.21,547.47 257.55,661.84 198.63,892.23 127.64,1190.95 119.20,1227.70 118.40,1246.32 124.02,1256.71">
        <lane id="-578070274#2_0" index="0" allow="pedestrian bicycle" speed="5.56" length="1336.88" width="1.50" shape="230.02,1.51 238.22,-0.75 249.20,-0.52 255.01,9.62 259.45,25.97 345.47,171.49 362.73,190.23 362.34,207.72 358.06,240.24 339.42,327.65 329.13,375.90 284.93,547.65 258.28,662.02 199.36,892.40 128.37,1191.12 119.94,1227.80 119.16,1246.15 123.73,1254.60"/>
    </edge>
    <edge id="-932618455" from="11981177660" to="5304716068" priority="3" type="highway.residential" shape="96.29,1324.73 93.55,1324.83 84.81,1325.39 41.65,1329.16 18.03,1331.02 10.00,1333.21 4.20,1336.09 0.00,1340.29">