<?xml version="1.0" encoding="UTF-8"?>

<!-- generated on 2024-09-03 01:38:33 by Eclipse SUMO netconvert Version 1.20.0
<configuration xmlns:xsi="http://www.w3.org/2001/XMLSchema-instance" xsi:noNamespaceSchemaLocation="http://sumo.dlr.de/xsd/netconvertConfiguration.xsd">

    <input>
        <osm-files value="train_files/roundabout/hard/osm_files/map(7).osm"/>
    </input>

    <output>
        <output-file value="train_files/roundabout/hard/outputs/map(7)_dict/map(7)/map(7).net.xml"/>
    </output>

    <projection>
        <proj.utm value="true"/>
    </projection>

    <building_defaults>
        <default.junctions.keep-clear value="false"/>
    </building_defaults>

</configuration>
-->

<net version="1.20" junctionCornerDetail="5" limitTurnSpeed="5.50" xmlns:xsi="http://www.w3.org/2001/XMLSchema-instance" xsi:noNamespaceSchemaLocation="http://sumo.dlr.de/xsd/net_file.xsd">

    <location netOffset="-446542.79,-5408032.23" convBoundary="0.00,0.00,3896.56,3499.65" origBoundary="2.271493,48.823293,2.324793,48.854665" projParameter="+proj=utm +zone=31 +ellps=WGS84 +datum=WGS84 +units=m +no_defs"/>

    <type id="highway.cycleway" priority="1" numLanes="1" speed="5.56" allow="bicycle" oneway="0" width="2.00"/>
    <type id="highway.footway" priority="1" numLanes="1" speed="2.78" allow="pedestrian" oneway="1" width="2.00"/>
    <type id="highway.primary" priority="12" numLanes="2" speed="27.78" disallow="tram rail_urban rail rail_electric rail_fast ship container cable_car subway aircraft wheelchair scooter drone" oneway="0"/>
    <type id="highway.residential" priority="3" numLanes="1" speed="13.89" disallow="tram rail_urban rail rail_electric rail_fast ship container cable_car subway aircraft wheelchair scooter drone" oneway="0"/>
    <type id="highway.steps" priority="1" numLanes="1" speed="1.39" allow="pedestrian" oneway="1" width="2.00"/>
    <type id="highway.tertiary" priority="10" numLanes="1" speed="22.22" disallow="tram rail_urban rail rail_electric rail_fast ship container cable_car subway aircraft wheelchair scooter drone" oneway="0"/>
    <type id="highway.track" priority="1" numLanes="1" speed="5.56" allow="pedestrian motorcycle moped bicycle" oneway="0"/>
    <type id="railway.subway" priority="18" numLanes="1" speed="27.78" allow="subway" oneway="1"/>
    <type id="railway.tram" priority="17" numLanes="1" speed="13.89" allow="tram" oneway="1"/>

    <edge id=":10228706164_0" function="internal">
        <lane id=":10228706164_0_0" index="0" disallow="tram rail_urban rail rail_electric rail_fast ship container cable_car subway aircraft wheelchair scooter drone" speed="8.33" length="0.10" shape="552.46,1565.23 552.50,1565.26"/>
    </edge>
    <edge id=":10228706164_1" function="internal">
        <lane id=":10228706164_1_0" index="0" disallow="tram rail_urban rail rail_electric rail_fast ship container cable_car subway aircraft wheelchair scooter drone" speed="8.33" length="0.10" shape="554.51,1562.77 554.47,1562.74"/>
    </edge>
    <edge id=":10228706167_0" function="internal">
        <lane id=":10228706167_0_0" index="0" disallow="tram rail_urban rail rail_electric rail_fast ship container cable_car subway aircraft wheelchair scooter drone" speed="8.33" length="4.78" shape="552.22,1565.04 548.51,1562.04"/>
    </edge>
    <edge id=":10228706167_1" function="internal">
        <lane id=":10228706167_1_0" index="0" disallow="tram rail_urban rail rail_electric rail_fast ship container cable_car subway aircraft wheelchair scooter drone" speed="8.33" length="4.78" shape="550.52,1559.55 554.24,1562.55"/>
    </edge>
    <edge id=":11561144077_0" function="internal">
        <lane id=":11561144077_0_0" index="0" disallow="tram rail_urban rail rail_electric rail_fast ship container cable_car subway aircraft wheelchair scooter drone" speed="8.33" length="0.10" shape="492.97,1689.04 492.97,1689.04"/>
    </edge>
    <edge id=":11561144079_0" function="internal">
        <lane id=":11561144079_0_0" index="0" disallow="tram rail_urban rail rail_electric rail_fast ship container cable_car subway aircraft wheelchair scooter drone" speed="8.33" length="0.15" shape="520.39,1515.45 520.44,1515.59"/>
        <lane id=":11561144079_0_1" index="1" disallow="tram rail_urban rail rail_electric rail_fast ship container cable_car subway aircraft wheelchair scooter drone" speed="8.33" length="0.15" shape="517.36,1516.46 517.40,1516.60"/>
    </edge>
    <edge id=":116120352_0" function="internal">
        <lane id=":116120352_0_0" index="0" disallow="tram rail_urban rail rail_electric rail_fast ship container cable_car subway aircraft wheelchair scooter drone" speed="6.28" length="8.29" shape="664.60,1490.56 663.59,1488.74 662.13,1487.69 660.19,1487.41 657.79,1487.91"/>
    </edge>
    <edge id=":116120352_1" function="internal">
        <lane id=":116120352_1_0" index="0" allow="bicycle" speed="6.95" length="11.90" width="2.00" shape="664.03,1490.76 663.52,1487.68 664.13,1485.15 665.36,1482.62 666.70,1479.54"/>
    </edge>
    <edge id=":116120352_2" function="internal">
        <lane id=":116120352_2_0" index="0" disallow="tram rail_urban rail rail_electric rail_fast ship container cable_car subway aircraft wheelchair scooter drone" speed="3.65" length="4.67" shape="664.60,1490.56 664.96,1489.17 665.58,1488.53 666.47,1488.64 667.62,1489.51"/>
    </edge>
    <edge id=":116120352_3" function="internal">
        <lane id=":116120352_3_0" index="0" disallow="tram rail_urban rail rail_electric rail_fast ship container cable_car subway aircraft wheelchair scooter drone" speed="5.88" length="7.11" shape="671.82,1484.70 669.60,1485.71 668.16,1486.85 667.50,1488.12 667.62,1489.51"/>
    </edge>
    <edge id=":116120352_4" function="internal">
        <lane id=":116120352_4_0" index="0" disallow="tram rail_urban rail rail_electric rail_fast ship container cable_car subway aircraft wheelchair scooter drone" speed="8.33" length="14.41" shape="671.82,1484.70 667.44,1486.01 664.05,1486.62 661.03,1487.08 657.79,1487.91"/>
    </edge>
    <edge id=":116120352_5" function="internal">
        <lane id=":116120352_5_0" index="0" allow="bicycle" speed="4.54" length="5.86" width="2.00" shape="670.53,1481.13 668.41,1481.71 667.06,1481.64 666.49,1480.91 666.70,1479.54"/>
    </edge>
    <edge id=":116120686_0" function="internal">
        <lane id=":116120686_0_0" index="0" disallow="tram rail_urban rail rail_electric rail_fast ship container cable_car subway aircraft wheelchair scooter drone" speed="3.65" length="4.67" shape="756.03,1650.39 755.66,1651.78 755.03,1652.42 754.14,1652.30 753.00,1651.42"/>
    </edge>
    <edge id=":116135091_0" function="internal">
        <lane id=":116135091_0_0" index="0" disallow="tram rail_urban rail rail_electric rail_fast ship container cable_car subway aircraft wheelchair scooter drone" speed="6.01" length="8.81" shape="429.26,1570.60 426.97,1571.77 425.76,1573.29 425.64,1575.17 426.60,1577.39"/>
    </edge>
    <edge id=":116135091_1" function="internal">
        <lane id=":116135091_1_0" index="0" disallow="tram rail_urban rail rail_electric rail_fast ship container cable_car subway aircraft wheelchair scooter drone" speed="8.33" length="11.28" shape="429.26,1570.60 418.62,1574.34"/>
    </edge>
    <edge id=":116135091_2" function="internal">
        <lane id=":116135091_2_0" index="0" allow="bus bicycle" speed="3.65" length="4.67" shape="429.26,1570.60 427.86,1570.24 427.21,1569.62 427.33,1568.73 428.19,1567.58"/>
    </edge>
    <edge id=":116135091_3" function="internal">
        <lane id=":116135091_3_0" index="0" allow="bus bicycle" speed="8.33" length="11.27" shape="417.56,1571.32 428.19,1567.58"/>
    </edge>
    <edge id=":116135091_4" function="internal">
        <lane id=":116135091_4_0" index="0" disallow="tram rail_urban rail rail_electric rail_fast ship container cable_car subway aircraft wheelchair scooter drone" speed="7.97" length="11.69" shape="417.56,1571.32 419.74,1571.13 421.97,1572.08 424.26,1574.17 426.60,1577.39"/>
    </edge>
    <edge id=":116135091_5" function="internal">
        <lane id=":116135091_5_0" index="0" disallow="tram rail_urban rail rail_electric rail_fast ship container cable_car subway aircraft wheelchair scooter drone" speed="3.65" length="4.67" shape="417.56,1571.32 418.96,1571.68 419.60,1572.30 419.49,1573.19 418.62,1574.34"/>
    </edge>
    <edge id=":116136718_0" function="internal">
        <lane id=":116136718_0_0" index="0" disallow="tram rail_urban rail rail_electric rail_fast ship container cable_car subway aircraft wheelchair scooter drone" speed="3.65" length="4.67" shape="274.39,1639.38 272.97,1639.16 272.27,1638.60 272.30,1637.70 273.05,1636.48"/>
    </edge>
    <edge id=":11690876246_0" function="internal">
        <lane id=":11690876246_0_0" index="0" disallow="tram rail_urban rail rail_electric rail_fast ship container cable_car subway aircraft wheelchair scooter drone" speed="8.33" length="0.10" shape="551.00,1524.09 551.00,1524.09"/>
    </edge>
    <edge id=":11691376298_0" function="internal">
        <lane id=":11691376298_0_0" index="0" disallow="tram rail_urban rail rail_electric rail_fast ship container cable_car subway aircraft wheelchair scooter drone" speed="13.89" length="2.36" shape="457.90,1456.58 455.68,1457.39"/>
        <lane id=":11691376298_0_1" index="1" disallow="tram rail_urban rail rail_electric rail_fast ship container cable_car subway aircraft wheelchair scooter drone" speed="13.89" length="2.36" shape="459.00,1459.58 456.78,1460.40"/>
    </edge>
    <edge id=":1568010288_0" function="internal">
        <lane id=":1568010288_0_0" index="0" disallow="tram rail_urban rail rail_electric rail_fast ship container cable_car subway aircraft wheelchair scooter drone" speed="8.33" length="0.10" shape="521.97,1562.05 521.97,1562.06"/>
    </edge>
    <edge id=":1568010291_0" function="internal">
        <lane id=":1568010291_0_0" index="0" disallow="tram rail_urban rail rail_electric rail_fast ship container cable_car subway aircraft wheelchair scooter drone" speed="8.33" length="5.63" shape="441.56,1601.41 444.44,1606.25"/>
    </edge>
    <edge id=":1617709807_0" function="internal">
        <lane id=":1617709807_0_0" index="0" allow="tram" speed="13.89" length="5.03" shape="513.87,1449.68 509.11,1451.32"/>
    </edge>
    <edge id=":1617709811_0" function="internal">
        <lane id=":1617709811_0_0" index="0" allow="tram" speed="13.89" length="5.03" shape="466.88,1465.34 462.11,1466.96"/>
    </edge>
    <edge id=":1617709815_0" function="internal">
        <lane id=":1617709815_0_0" index="0" allow="bicycle" speed="9.72" length="7.82" width="2.00" shape="455.52,1455.53 457.73,1455.89 459.29,1455.66 460.81,1454.97 462.93,1453.98"/>
    </edge>
    <edge id=":1617709815_1" function="internal">
        <lane id=":1617709815_1_0" index="0" disallow="tram rail_urban rail rail_electric rail_fast ship container cable_car subway aircraft wheelchair scooter drone" speed="13.89" length="7.88" shape="455.87,1457.32 463.16,1454.53"/>
        <lane id=":1617709815_1_1" index="1" disallow="tram rail_urban rail rail_electric rail_fast ship container cable_car subway aircraft wheelchair scooter drone" speed="13.89" length="7.88" shape="456.97,1460.33 464.39,1457.48"/>
    </edge>
    <edge id=":1617709825_0" function="internal">
        <lane id=":1617709825_0_0" index="0" allow="bicycle" speed="9.72" length="12.07" width="2.00" shape="524.50,1459.71 521.35,1459.65 518.87,1459.95 516.26,1460.67 512.75,1461.87"/>
    </edge>
    <edge id=":1617709825_1" function="internal">
        <lane id=":1617709825_1_0" index="0" disallow="tram rail_urban rail rail_electric rail_fast ship container cable_car subway aircraft wheelchair scooter drone" speed="13.89" length="9.88" shape="521.88,1458.17 512.55,1461.31"/>
        <lane id=":1617709825_1_1" index="1" disallow="tram rail_urban rail rail_electric rail_fast ship container cable_car subway aircraft wheelchair scooter drone" speed="13.89" length="9.88" shape="520.87,1455.13 511.50,1458.28"/>
        <lane id=":1617709825_1_2" index="2" disallow="tram rail_urban rail rail_electric rail_fast ship container cable_car subway aircraft wheelchair scooter drone" speed="13.89" length="9.88" shape="519.86,1452.10 510.46,1455.26"/>
    </edge>
    <edge id=":1617709831_0" function="internal">
        <lane id=":1617709831_0_0" index="0" disallow="tram rail_urban rail rail_electric rail_fast ship container cable_car subway aircraft wheelchair scooter drone" speed="13.89" length="5.02" shape="470.13,1474.53 465.40,1476.22"/>
        <lane id=":1617709831_0_1" index="1" disallow="tram rail_urban rail rail_electric rail_fast ship container cable_car subway aircraft wheelchair scooter drone" speed="13.89" length="5.02" shape="469.05,1471.52 464.33,1473.21"/>
    </edge>
    <edge id=":1755229621_0" function="internal">
        <lane id=":1755229621_0_0" index="0" disallow="tram rail_urban rail rail_electric rail_fast ship container cable_car subway aircraft wheelchair scooter drone" speed="8.33" length="0.10" shape="712.12,1694.25 712.12,1694.25"/>
    </edge>
    <edge id=":1755229621_1" function="internal">
        <lane id=":1755229621_1_0" index="0" disallow="tram rail_urban rail rail_electric rail_fast ship container cable_car subway aircraft wheelchair scooter drone" speed="8.33" length="0.10" shape="714.13,1691.76 714.13,1691.76"/>
    </edge>
    <edge id=":1755229632_0" function="internal">
        <lane id=":1755229632_0_0" index="0" disallow="tram rail_urban rail rail_electric rail_fast ship container cable_car subway aircraft wheelchair scooter drone" speed="8.33" length="0.10" shape="723.14,1703.15 723.14,1703.15"/>
    </edge>
    <edge id=":1755229632_1" function="internal">
        <lane id=":1755229632_1_0" index="0" disallow="tram rail_urban rail rail_electric rail_fast ship container cable_car subway aircraft wheelchair scooter drone" speed="8.33" length="0.10" shape="725.15,1700.66 725.15,1700.66"/>
    </edge>
    <edge id=":1775401888_0" function="internal">
        <lane id=":1775401888_0_0" index="0" allow="tram" speed="13.89" length="0.30" shape="3300.01,215.54 3300.30,215.44"/>
    </edge>
    <edge id=":1785132746_0" function="internal">
        <lane id=":1785132746_0_0" index="0" disallow="tram rail_urban rail rail_electric rail_fast ship container cable_car subway aircraft wheelchair scooter drone" speed="8.33" length="5.12" shape="500.24,1447.07 501.56,1452.02"/>
        <lane id=":1785132746_0_1" index="1" disallow="tram rail_urban rail rail_electric rail_fast ship container cable_car subway aircraft wheelchair scooter drone" speed="8.33" length="5.12" shape="497.15,1447.91 498.47,1452.85"/>
        <lane id=":1785132746_0_2" index="2" disallow="tram rail_urban rail rail_electric rail_fast ship container cable_car subway aircraft wheelchair scooter drone" speed="8.33" length="5.12" shape="494.06,1448.74 495.38,1453.67"/>
    </edge>
    <edge id=":1785132746_3" function="internal">
        <lane id=":1785132746_3_0" index="0" allow="tram" speed="13.89" length="11.90" shape="492.81,1452.90 504.10,1449.15"/>
    </edge>
    <edge id=":1785132752_0" function="internal">
        <lane id=":1785132752_0_0" index="0" disallow="tram rail_urban rail rail_electric rail_fast ship container cable_car subway aircraft wheelchair scooter drone" speed="8.33" length="2.96" shape="481.72,1458.10 480.93,1455.25"/>
        <lane id=":1785132752_0_1" index="1" disallow="tram rail_urban rail rail_electric rail_fast ship container cable_car subway aircraft wheelchair scooter drone" speed="8.33" length="2.96" shape="484.80,1457.25 484.01,1454.40"/>
        <lane id=":1785132752_0_2" index="2" disallow="tram rail_urban rail rail_electric rail_fast ship container cable_car subway aircraft wheelchair scooter drone" speed="8.33" length="2.96" shape="487.89,1456.40 487.10,1453.55"/>
        <lane id=":1785132752_0_3" index="3" disallow="tram rail_urban rail rail_electric rail_fast ship container cable_car subway aircraft wheelchair scooter drone" speed="8.33" length="2.96" shape="490.97,1455.55 490.18,1452.69"/>
    </edge>
    <edge id=":1785132752_4" function="internal">
        <lane id=":1785132752_4_0" index="0" allow="tram" speed="13.89" length="12.81" shape="480.43,1456.91 492.62,1452.96"/>
    </edge>
    <edge id=":1785132756_0" function="internal">
        <lane id=":1785132756_0_0" index="0" allow="tram" speed="13.89" length="8.49" shape="471.95,1459.69 474.24,1458.73 475.66,1457.77 476.90,1456.52 478.68,1454.72"/>
    </edge>
    <edge id=":1785132756_1" function="internal">
        <lane id=":1785132756_1_0" index="0" allow="tram" speed="13.89" length="8.73" shape="471.95,1459.69 480.24,1456.97"/>
    </edge>
    <edge id=":1835618183_0" function="internal">
        <lane id=":1835618183_0_0" index="0" disallow="tram rail_urban rail rail_electric rail_fast ship container cable_car subway aircraft wheelchair scooter drone" speed="8.33" length="8.26" shape="525.98,1547.38 523.67,1548.09 522.01,1548.27 520.30,1548.12 517.86,1547.86"/>
    </edge>
    <edge id=":1835618183_1" function="internal">
        <lane id=":1835618183_1_0" index="0" disallow="tram rail_urban rail rail_electric rail_fast ship container cable_car subway aircraft wheelchair scooter drone" speed="6.44" length="9.03" shape="522.87,1553.92 522.79,1551.43 521.93,1549.59 520.28,1548.40 517.86,1547.86"/>
    </edge>
    <edge id=":1918830963_0" function="internal">
        <lane id=":1918830963_0_0" index="0" disallow="tram rail_urban rail rail_electric rail_fast ship container cable_car subway aircraft wheelchair scooter drone" speed="7.77" length="7.85" shape="533.30,1549.75 531.24,1548.29 529.37,1547.40 527.67,1547.07 526.17,1547.31"/>
    </edge>
    <edge id=":1918830963_1" function="internal">
        <lane id=":1918830963_1_0" index="0" disallow="tram rail_urban rail rail_electric rail_fast ship container cable_car subway aircraft wheelchair scooter drone" speed="7.62" length="8.71" shape="533.88,1539.15 533.39,1541.79 533.46,1544.03 534.11,1545.85 535.31,1547.26"/>
    </edge>
    <edge id=":1918830963_2" function="internal">
        <lane id=":1918830963_2_0" index="0" disallow="tram rail_urban rail rail_electric rail_fast ship container cable_car subway aircraft wheelchair scooter drone" speed="8.33" length="11.68" shape="533.88,1539.15 532.79,1541.88 531.15,1544.15 528.94,1545.96 526.17,1547.31"/>
    </edge>
    <edge id=":2467777375_0" function="internal">
        <lane id=":2467777375_0_0" index="0" disallow="tram rail_urban rail rail_electric rail_fast ship container cable_car subway aircraft wheelchair scooter drone" speed="8.33" length="5.39" shape="501.98,1544.79 496.90,1546.59"/>
    </edge>
    <edge id=":2467777375_1" function="internal">
        <lane id=":2467777375_1_0" index="0" allow="bus bicycle" speed="8.33" length="5.39" shape="495.83,1543.58 500.91,1541.78"/>
    </edge>
    <edge id=":2467777375_2" function="internal">
        <lane id=":2467777375_2_0" index="0" allow="bus bicycle" speed="3.65" length="1.44" shape="495.83,1543.58 497.22,1543.93"/>
    </edge>
    <edge id=":2467777375_3" function="internal">
        <lane id=":2467777375_3_0" index="0" allow="bus bicycle" speed="3.65" length="3.23" shape="497.22,1543.93 497.87,1544.55 497.76,1545.44 496.90,1546.59"/>
    </edge>
    <edge id=":2472527181_0" function="internal">
        <lane id=":2472527181_0_0" index="0" disallow="tram rail_urban rail rail_electric rail_fast ship container cable_car subway aircraft wheelchair scooter drone" speed="8.33" length="7.19" shape="667.04,1497.54 664.66,1490.75"/>
    </edge>
    <edge id=":2472527181_1" function="internal">
        <lane id=":2472527181_1_0" index="0" disallow="tram rail_urban rail rail_electric rail_fast ship container cable_car subway aircraft wheelchair scooter drone" speed="8.33" length="7.17" shape="667.69,1489.70 670.06,1496.47"/>
    </edge>
    <edge id=":2550454422_0" function="internal">
        <lane id=":2550454422_0_0" index="0" allow="tram" speed="13.89" length="0.29" shape="3416.38,175.41 3416.66,175.32"/>
    </edge>
    <edge id=":2550454424_0" function="internal">
        <lane id=":2550454424_0_0" index="0" allow="tram" speed="13.89" length="0.28" shape="3413.69,176.30 3413.96,176.21"/>
    </edge>
    <edge id=":305982416_0" function="internal">
        <lane id=":305982416_0_0" index="0" disallow="tram rail_urban rail rail_electric rail_fast ship container cable_car subway aircraft wheelchair scooter drone" speed="8.33" length="10.07" shape="598.08,1602.09 590.25,1595.76"/>
    </edge>
    <edge id=":305982416_1" function="internal">
        <lane id=":305982416_1_0" index="0" disallow="tram rail_urban rail rail_electric rail_fast ship container cable_car subway aircraft wheelchair scooter drone" speed="6.64" length="10.58" shape="598.08,1602.09 596.47,1600.17 596.16,1598.04 597.13,1595.71 599.40,1593.19"/>
    </edge>
    <edge id=":305982416_2" function="internal">
        <lane id=":305982416_2_0" index="0" disallow="tram rail_urban rail rail_electric rail_fast ship container cable_car subway aircraft wheelchair scooter drone" speed="3.65" length="4.67" shape="598.08,1602.09 597.65,1600.71 597.84,1599.84 598.66,1599.47 600.09,1599.60"/>
    </edge>
    <edge id=":305982416_3" function="internal">
        <lane id=":305982416_3_0" index="0" disallow="tram rail_urban rail rail_electric rail_fast ship container cable_car subway aircraft wheelchair scooter drone" speed="6.49" length="7.89" shape="592.26,1593.27 594.10,1594.39 595.90,1594.75 597.67,1594.35 599.40,1593.19"/>
    </edge>
    <edge id=":305982416_4" function="internal">
        <lane id=":305982416_4_0" index="0" disallow="tram rail_urban rail rail_electric rail_fast ship container cable_car subway aircraft wheelchair scooter drone" speed="8.33" length="10.07" shape="592.26,1593.27 600.09,1599.60"/>
    </edge>
    <edge id=":305982416_5" function="internal">
        <lane id=":305982416_5_0" index="0" disallow="tram rail_urban rail rail_electric rail_fast ship container cable_car subway aircraft wheelchair scooter drone" speed="3.65" length="4.67" shape="592.26,1593.27 592.69,1594.65 592.50,1595.52 591.68,1595.89 590.25,1595.76"/>
    </edge>
    <edge id=":305982731_0" function="internal">
        <lane id=":305982731_0_0" index="0" disallow="tram rail_urban rail rail_electric rail_fast ship container cable_car subway aircraft wheelchair scooter drone" speed="7.66" length="7.49" shape="572.27,1521.40 570.39,1520.06 568.63,1519.24 566.98,1518.96 565.44,1519.20"/>
    </edge>
    <edge id=":305982731_1" function="internal">
        <lane id=":305982731_1_0" index="0" disallow="tram rail_urban rail rail_electric rail_fast ship container cable_car subway aircraft wheelchair scooter drone" speed="8.33" length="8.23" shape="573.23,1516.55 565.44,1519.20"/>
    </edge>
    <edge id=":3071635720_0" function="internal">
        <lane id=":3071635720_0_0" index="0" disallow="tram rail_urban rail rail_electric rail_fast ship container cable_car subway aircraft wheelchair scooter drone" speed="8.33" length="0.10" shape="753.05,1727.32 753.12,1727.38"/>
    </edge>
    <edge id=":3071635720_1" function="internal">
        <lane id=":3071635720_1_0" index="0" disallow="tram rail_urban rail rail_electric rail_fast ship container cable_car subway aircraft wheelchair scooter drone" speed="8.33" length="0.10" shape="755.14,1724.89 755.21,1724.95"/>
    </edge>
    <edge id=":34909841_0" function="internal">
        <lane id=":34909841_0_0" index="0" allow="tram" speed="13.89" length="20.11" shape="478.82,1454.58 482.22,1450.65 484.60,1446.33 485.96,1441.63 486.30,1436.56"/>
    </edge>
    <edge id=":367316714_0" function="internal">
        <lane id=":367316714_0_0" index="0" disallow="tram rail_urban rail rail_electric rail_fast ship container cable_car subway aircraft wheelchair scooter drone" speed="7.05" length="10.93" shape="488.53,1475.05 487.19,1472.43 485.30,1470.89 482.86,1470.44 479.86,1471.06"/>
        <lane id=":367316714_0_1" index="1" disallow="tram rail_urban rail rail_electric rail_fast ship container cable_car subway aircraft wheelchair scooter drone" speed="8.45" length="16.16" shape="491.56,1474.03 489.58,1470.13 486.79,1467.83 483.19,1467.14 478.79,1468.05"/>
    </edge>
    <edge id=":367316714_2" function="internal">
        <lane id=":367316714_2_0" index="0" disallow="tram rail_urban rail rail_electric rail_fast ship container cable_car subway aircraft wheelchair scooter drone" speed="8.33" length="15.85" shape="494.60,1473.02 491.89,1468.89 488.39,1467.06 484.98,1465.21 482.52,1461.00"/>
        <lane id=":367316714_2_1" index="1" disallow="tram rail_urban rail rail_electric rail_fast ship container cable_car subway aircraft wheelchair scooter drone" speed="8.33" length="15.85" shape="494.60,1473.02 492.43,1468.93 489.95,1466.63 487.54,1464.31 485.60,1460.15"/>
        <lane id=":367316714_2_2" index="2" disallow="tram rail_urban rail rail_electric rail_fast ship container cable_car subway aircraft wheelchair scooter drone" speed="8.33" length="15.85" shape="494.60,1473.02 488.69,1459.30"/>
        <lane id=":367316714_2_3" index="3" disallow="tram rail_urban rail rail_electric rail_fast ship container cable_car subway aircraft wheelchair scooter drone" speed="8.33" length="15.85" shape="494.60,1473.02 493.44,1468.78 493.04,1465.77 492.71,1462.75 491.77,1458.44"/>
    </edge>
    <edge id=":367316714_6" function="internal">
        <lane id=":367316714_6_0" index="0" disallow="tram rail_urban rail rail_electric rail_fast ship container cable_car subway aircraft wheelchair scooter drone" speed="13.89" length="17.67" shape="496.97,1466.71 479.86,1471.06"/>
        <lane id=":367316714_6_1" index="1" disallow="tram rail_urban rail rail_electric rail_fast ship container cable_car subway aircraft wheelchair scooter drone" speed="13.89" length="17.67" shape="495.92,1463.69 478.79,1468.05"/>
    </edge>
    <edge id=":367316714_8" function="internal">
        <lane id=":367316714_8_0" index="0" disallow="tram rail_urban rail rail_electric rail_fast ship container cable_car subway aircraft wheelchair scooter drone" speed="5.75" length="7.17" shape="494.86,1460.67 492.49,1461.28 490.67,1461.25 489.41,1460.59 488.69,1459.30"/>
        <lane id=":367316714_8_1" index="1" disallow="tram rail_urban rail rail_electric rail_fast ship container cable_car subway aircraft wheelchair scooter drone" speed="4.68" length="4.39" shape="494.86,1460.67 493.82,1460.83 492.96,1460.51 492.28,1459.71 491.77,1458.44"/>
    </edge>
    <edge id=":367316716_0" function="internal">
        <lane id=":367316716_0_0" index="0" disallow="tram rail_urban rail rail_electric rail_fast ship container cable_car subway aircraft wheelchair scooter drone" speed="8.33" length="9.27" shape="512.94,1545.68 510.24,1544.55 507.86,1543.90 505.79,1543.74 504.02,1544.07"/>
    </edge>
    <edge id=":367316716_1" function="internal">
        <lane id=":367316716_1_0" index="0" disallow="tram rail_urban rail rail_electric rail_fast ship container cable_car subway aircraft wheelchair scooter drone" speed="8.33" length="13.98" shape="512.94,1545.68 509.97,1543.70 508.02,1541.10 507.09,1537.89 507.17,1534.07"/>
    </edge>
    <edge id=":367316716_2" function="internal">
        <lane id=":367316716_2_0" index="0" allow="bus bicycle" speed="7.84" length="8.56" shape="502.96,1541.05 504.49,1540.17 505.70,1538.71 506.59,1536.68 507.17,1534.07"/>
    </edge>
    <edge id=":367317322_0" function="internal">
        <lane id=":367317322_0_0" index="0" disallow="tram rail_urban rail rail_electric rail_fast ship container cable_car subway aircraft wheelchair scooter drone" speed="6.55" length="7.85" shape="538.54,1528.31 536.66,1529.25 535.41,1530.57 534.78,1532.29 534.79,1534.39"/>
    </edge>
    <edge id=":367317322_1" function="internal">
        <lane id=":367317322_1_0" index="0" disallow="tram rail_urban rail rail_electric rail_fast ship container cable_car subway aircraft wheelchair scooter drone" speed="8.33" length="9.17" shape="531.79,1525.84 533.15,1528.19 533.92,1529.89 534.38,1531.71 534.79,1534.39"/>
    </edge>
    <edge id=":367318534_0" function="internal">
        <lane id=":367318534_0_0" index="0" disallow="tram rail_urban rail rail_electric rail_fast ship container cable_car subway aircraft wheelchair scooter drone" speed="8.33" length="11.78" shape="507.18,1533.97 507.32,1530.89 506.79,1528.54 505.77,1526.08 504.46,1522.70"/>
        <lane id=":367318534_0_1" index="1" disallow="tram rail_urban rail rail_electric rail_fast ship container cable_car subway aircraft wheelchair scooter drone" speed="8.33" length="12.52" shape="507.18,1533.97 507.81,1530.78 508.35,1528.15 508.38,1525.35 507.49,1521.67"/>
        <lane id=":367318534_0_2" index="2" disallow="tram rail_urban rail rail_electric rail_fast ship container cable_car subway aircraft wheelchair scooter drone" speed="8.33" length="14.17" shape="507.18,1533.97 508.32,1530.71 509.95,1527.89 511.03,1524.77 510.52,1520.64"/>
    </edge>
    <edge id=":367318534_3" function="internal">
        <lane id=":367318534_3_0" index="0" disallow="tram rail_urban rail rail_electric rail_fast ship container cable_car subway aircraft wheelchair scooter drone" speed="8.33" length="14.77" shape="507.18,1533.97 508.18,1529.59 509.76,1526.15 511.94,1523.65 514.71,1522.09"/>
    </edge>
    <edge id=":367318543_0" function="internal">
        <lane id=":367318543_0_0" index="0" disallow="tram rail_urban rail rail_electric rail_fast ship container cable_car subway aircraft wheelchair scooter drone" speed="8.33" length="8.16" shape="520.49,1515.74 521.40,1517.83 522.58,1519.50 524.05,1520.73 525.79,1521.53"/>
    </edge>
    <edge id=":367318543_1" function="internal">