<?xml version="1.0" encoding="UTF-8"?>

<!-- generated on 2024-09-03 01:38:33 by Eclipse SUMO duarouter Version 1.20.0
<configuration xmlns:xsi="http://www.w3.org/2001/XMLSchema-instance" xsi:noNamespaceSchemaLocation="http://sumo.dlr.de/xsd/duarouterConfiguration.xsd">

    <input>
        <net-file value="train_files/roundabout/hard/outputs/map(7)_dict/map(7)/map(7).net.xml"/>
        <route-files value="train_files/roundabout/hard/outputs/map(7)_dict/map(7)/map(7).trips.xml"/>
    </input>

    <output>
        <output-file value="train_files/roundabout/hard/outputs/map(7)_dict/map(7)/map(7).rou.xml"/>
    </output>

    <report>
        <ignore-errors value="true"/>
    </report>

</configuration>
-->

<routes xmlns:xsi="http://www.w3.org/2001/XMLSchema-instance" xsi:noNamespaceSchemaLocation="http://sumo.dlr.de/xsd/routes_file.xsd">
    <vehicle id="0" depart="0.00">
        <route edges="333459478 37188841#0 37188841#1 37188841#2 37188841#3 37188841#4 299348132 859038260 506259783 1227455262 32662001#0 32662001#1 -12714428#2 -12714428#1 -12714428#0"/>
    </vehicle>
    <vehicle id="1" depart="0.72">
        <route edges="-12713902#1 -12713902#0 37188841#0 37188841#1 37188841#2 37188841#3 37188841#4 299348132 12711223#0 12711223#1 12711223#2 12711223#3 12711223#4 12711223#5 12711223#6 12711223#7"/>
    </vehicle>
    <vehicle id="2" depart="1.44">
        <route edges="591606687#0 591606687#1 761295147"/>
    </vehicle>
    <vehicle id="3" depart="2.16">
        <route edges="84686444#0 84686444#1 761295146 503009616#0 503009616#1 503009616#2 503009617 299348132 859038260 506259783 1227455262 32662001#0 32662001#1 -12714428#2 -12714428#1 -12714428#0"/>
    </vehicle>
    <vehicle id="4" depart="2.88">
        <route edges="12714428#0 12714428#1 12714428#2 -12714428#2 -12714428#1 -12714428#0"/>
    </vehicle>
    <vehicle id="5" depart="3.60">
        <route edges="-12713902#1 -12713902#0 37188841#0 37188841#1 37188841#2 37188841#3 37188841#4 299348132 859038260 506259783 506259782 53565537#0 53565537#1 53565537#2 84686449#0 84686449#1 16880067#0 16880067#1"/>
    </vehicle>
    <vehicle id="6" depart="4.32">
        <route edges="-12711223#7 -12711223#6 -12711223#5 -12711223#4 12711223#4 12711223#5 12711223#6 12711223#7"/>
    </vehicle>
    <vehicle id="7" depart="5.04">
        <route edges="333459478 37188841#0 37188841#1 37188841#2 37188841#3 37188841#4 299348132 859038260 506259783 506259782 53565537#0 53565537#1 53565537#2 84686449#0 84686449#1 16880067#0 16880067#1"/>
    </vehicle>
    <vehicle id="8" depart="5.76">
        <route edges="-12713902#1 -12713902#0 37188841#0 37188841#1 37188841#2 37188841#3 37188841#4 299348132 859038260 506259783 506259782 53565537#0 53565537#1 53565537#2 84686449#0 84686449#1 16880067#0 16880067#1"/>
    </vehicle>
    <vehicle id="10" depart="7.20">
        <route edges="591606687#0 591606687#1 761295147"/>
    </vehicle>
    <vehicle id="11" depart="7.92">
        <route edges="12714428#0 12714428#1 12714428#2 -12714428#2 -12714428#1 -12714428#0"/>
    </vehicle>
    <vehicle id="13" depart="9.36">
        <route edges="-12711223#7 -12711223#6 -12711223#5 -12711223#4 -12711223#3 -12711223#2 -12711223#1 -12711223#0 859038260 506259783 1227455262 32662001#0 32662001#1 -12714428#2 -12714428#1 -12714428#0"/>
    </vehicle>
    <vehicle id="15" depart="10.80">
        <route edges="591606687#0 591606687#1 761295147"/>
    </vehicle>
    <vehicle id="16" depart="11.52">
        <route edges="32661903#0 32661903#1 32661903#2 52511947 84686442#0 84686442#1 84686442#2"/>
    </vehicle>
    <vehicle id="17" depart="12.24">
        <route edges="12714428#0 12714428#1 12714428#2 4028986#0 4028986#1 699868651#0 699868651#1 699868651#2 14457581#0 14457581#1 14457581#2 14457581#3 506259783 506259782 53565537#0 53565537#1 53565537#2 84686449#0 84686449#1 16880067#0 16880067#1"/>
    </vehicle>
    <vehicle id="19" depart="13.68">
        <route edges="84686444#0 84686444#1 761295146 52511947 84686449#0 84686449#1 16880067#0 16880067#1"/>
    </vehicle>
    <vehicle id="20" depart="14.40">
        <route edges="333459478 37188841#0 37188841#1 37188841#2 37188841#3 37188841#4 299348132 859038260 506259783 1227455262 32662001#0 32662001#1 -12714428#2 -12714428#1 -12714428#0"/>
    </vehicle>
    <vehicle id="21" depart="15.12">
        <route edges="-12713902#1 -12713902#0 37188841#0 37188841#1 37188841#2 37188841#3 37188841#4 299348132 12711223#0 12711223#1 12711223#2 12711223#3 12711223#4 12711223#5 12711223#6 12711223#7"/>
    </vehicle>
    <vehicle id="22" depart="15.84">
        <route edges="-12711223#7 -12711223#6 -12711223#5 -12711223#4 12711223#4 12711223#5 12711223#6 12711223#7"/>
    </vehicle>
    <vehicle id="23" depart="16.56">
        <route edges="-12711223#7 -12711223#6 -12711223#5 -12711223#4 12711223#4 12711223#5 12711223#6 12711223#7"/>
    </vehicle>
    <vehicle id="24" depart="17.28">
        <route edges="333459478 12713902#0 12713902#1"/>
    </vehicle>
    <vehicle id="25" depart="18.00">
        <route edges="12714428#0 12714428#1 12714428#2 4028986#0 4028986#1 699868651#0 699868651#1 699868651#2 14457581#0 14457581#1 14457581#2 14457581#3 506259783 506259782 32661907 503009617 299348132 12711223#0 12711223#1 12711223#2 12711223#3 12711223#4 12711223#5 12711223#6 12711223#7"/>
    </vehicle>
    <vehicle id="26" depart="18.72">
        <route edges="-12713902#1 -12713902#0 37188841#0 37188841#1 37188841#2 37188841#3 37188841#4 299348132 859038260 506259783 506259782 53565537#0 53565537#1 53565537#2 84686442#0 84686442#1 84686442#2"/>
    </vehicle>
    <vehicle id="27" depart="19.44">
        <route edges="333459478 37188841#0 37188841#1 37188841#2 37188841#3 37188841#4 299348132 859038260 506259783 506259782 53565537#0 53565537#1 53565537#2 84686449#0 84686449#1 16880067#0 16880067#1"/>
    </vehicle>
    <vehicle id="29" depart="20.88">
        <route edges="-12713902#1 -12713902#0 12713902#0 12713902#1"/>
    </vehicle>
    <vehicle id="30" depart="21.60">
        <route edges="84686444#0 84686444#1 761295146 52511947 84686449#0 84686449#1 16880067#0 16880067#1"/>
    </vehicle>
    <vehicle id="32" depart="23.04">
        <route edges="591606687#0 591606687#1 761295147"/>
    </vehicle>
    <vehicle id="33" depart="23.76">
        <route edges="-12713902#1 -12713902#0 37188841#0 37188841#1 37188841#2 37188841#3 37188841#4 299348132 859038260 506259783 1227455262 32662001#0 32662001#1 -12714428#2 -12714428#1 -12714428#0"/>
    </vehicle>
    <vehicle id="34" depart="24.48">
        <route edges="12714428#0 12714428#1 12714428#2 4028986#0 4028986#1 699868651#0 699868651#1 699868651#2 14457581#0 14457581#1 14457581#2 14457581#3 506259783 506259782 32661907 503009617 299348132 12711223#0 12711223#1 12711223#2 12711223#3 12711223#4 12711223#5 12711223#6 12711223#7"/>
    </vehicle>
    <vehicle id="35" depart="25.20">
        <route edges="-12713902#1 -12713902#0 37188841#0 37188841#1 37188841#2 37188841#3 37188841#4 299348132 859038260 506259783 506259782 53565537#0 53565537#1 53565537#2 84686442#0 84686442#1 84686442#2"/>
    </vehicle>
    <vehicle id="36" depart="25.92">
        <route edges="84686444#0 84686444#1 761295146 503009616#0 503009616#1 503009616#2 503009617 299348132 12711223#0 12711223#1 12711223#2 12711223#3 12711223#4 12711223#5 12711223#6 12711223#7"/>
    </vehicle>
    <vehicle id="37" depart="26.64">
        <route edges="333459478 12713902#0 12713902#1"/>
    </vehicle>
    <vehicle id="39" depart="28.08">
        <route edges="-12713902#1 -12713902#0 37188841#0 37188841#1 37188841#2 37188841#3 37188841#4 299348132 12711223#0 12711223#1 12711223#2 12711223#3 12711223#4 12711223#5 12711223#6 12711223#7"/>
    </vehicle>
    <vehicle id="40" depart="28.80">
        <route edges="32661903#0 32661903#1 32661903#2 503009616#0 503009616#1 503009616#2 503009617 299348132 12711223#0 12711223#1 12711223#2 12711223#3 12711223#4 12711223#5 12711223#6 12711223#7"/>
    </vehicle>
    <vehicle id="41" depart="29.52">
        <route edges="333459478 37188841#0 37188841#1 37188841#2 37188841#3 37188841#4 299348132 859038260 506259783 506259782 53565537#0 53565537#1 53565537#2 84686442#0 84686442#1 84686442#2"/>
    </vehicle>
    <vehicle id="42" depart="30.24">
        <route edges="12714428#0 12714428#1 12714428#2 4028986#0 4028986#1 699868651#0 699868651#1 699868651#2 14457581#0 14457581#1 14457581#2 14457581#3 506259783 506259782 32661907 503009617 299348132 12711223#0 12711223#1 12711223#2 12711223#3 12711223#4 12711223#5 12711223#6 12711223#7"/>
    </vehicle>
    <vehicle id="43" depart="30.96">
        <route edges="84686444#0 84686444#1 761295146 52511947 84686449#0 84686449#1 16880067#0 16880067#1"/>
    </vehicle>
    <vehicle id="44" depart="31.68">
        <route edges="-12711223#7 -12711223#6 -12711223#5 -12711223#4 -12711223#3 -12711223#2 -12711223#1 -12711223#0 859038260 506259783 1227455262 32662001#0 32662001#1 -12714428#2 -12714428#1 -12714428#0"/>
    </vehicle>
    <vehicle id="45" depart="32.40">
        <route edges="-12711223#7 -12711223#6 -12711223#5 -12711223#4 -12711223#3 -12711223#2 -12711223#1 -12711223#0 859038260 506259783 506259782 53565537#0 53565537#1 53565537#2 84686449#0 84686449#1 16880067#0 16880067#1"/>
    </vehicle>
    <vehicle id="48" depart="34.56">
        <route edges="84686444#0 84686444#1 761295146 52511947 84686449#0 84686449#1 16880067#0 16880067#1"/>
    </vehicle>
    <vehicle id="49" depart="35.28">
        <route edges="84686444#0 84686444#1 761295146 52511947 84686442#0 84686442#1 84686442#2"/>
    </vehicle>
    <vehicle id="51" depart="36.72">
        <route edges="333459478 37188841#0 37188841#1 37188841#2 37188841#3 37188841#4 299348132 859038260 506259783 506259782 53565537#0 53565537#1 53565537#2 84686449#0 84686449#1 16880067#0 16880067#1"/>
    </vehicle>
    <vehicle id="52" depart="37.44">
        <route edges="-12713902#1 -12713902#0 37188841#0 37188841#1 37188841#2 37188841#3 37188841#4 299348132 859038260 506259783 506259782 53565537#0 53565537#1 53565537#2 84686449#0 84686449#1 16880067#0 16880067#1"/>
    </vehicle>
    <vehicle id="54" depart="38.88">
        <route edges="32661903#0 32661903#1 32661903#2 52511947 84686442#0 84686442#1 84686442#2"/>
    </vehicle>
    <vehicle id="55" depart="39.60">
        <route edges="84686444#0 84686444#1 761295146 503009616#0 503009616#1 503009616#2 503009617 299348132 12711223#0 12711223#1 12711223#2 12711223#3 12711223#4 12711223#5 12711223#6 12711223#7"/>
    </vehicle>
    <vehicle id="56" depart="40.32">
        <route edges="32661903#0 32661903#1 32661903#2 503009616#0 503009616#1 503009616#2 503009617 299348132 12711223#0 12711223#1 12711223#2 12711223#3 12711223#4 12711223#5 12711223#6 12711223#7"/>
    </vehicle>
    <vehicle id="57" depart="41.04">
        <route edges="84686444#0 84686444#1 761295146 52511947 84686442#0 84686442#1 84686442#2"/>
    </vehicle>
    <vehicle id="58" depart="41.76">
        <route edges="12714428#0 12714428#1 12714428#2 4028986#0 4028986#1 699868651#0 699868651#1 699868651#2 14457581#0 14457581#1 14457581#2 14457581#3 506259783 506259782 53565537#0 53565537#1 53565537#2 84686449#0 84686449#1 16880067#0 16880067#1"/>
    </vehicle>
    <vehicle id="59" depart="42.48">
        <route edges="333459478 37188841#0 37188841#1 37188841#2 37188841#3 37188841#4 299348132 859038260 506259783 1227455262 32662001#0 32662001#1 -12714428#2 -12714428#1 -12714428#0"/>
    </vehicle>
    <vehicle id="62" depart="44.64">
        <route edges="-12711223#7 -12711223#6 -12711223#5 -12711223#4 12711223#4 12711223#5 12711223#6 12711223#7"/>
    </vehicle>
    <vehicle id="63" depart="45.36">
        <route edges="-12711223#7 -12711223#6 -12711223#5 -12711223#4 -12711223#3 -12711223#2 -12711223#1 -12711223#0 859038260 506259783 506259782 53565537#0 53565537#1 53565537#2 84686442#0 84686442#1 84686442#2"/>
    </vehicle>
    <vehicle id="65" depart="46.80">
        <route edges="12714428#0 12714428#1 12714428#2 -12714428#2 -12714428#1 -12714428#0"/>
    </vehicle>
    <vehicle id="66" depart="47.52">
        <route edges="84686444#0 84686444#1 761295146 52511947 84686442#0 84686442#1 84686442#2"/>
    </vehicle>
    <vehicle id="70" depart="50.40">
        <route edges="32661903#0 32661903#1 32661903#2 52511947 84686449#0 84686449#1 16880067#0 16880067#1"/>
    </vehicle>
    <vehicle id="71" depart="51.12">
        <route edges="-12713902#1 -12713902#0 37188841#0 37188841#1 37188841#2 37188841#3 37188841#4 299348132 859038260 506259783 506259782 53565537#0 53565537#1 53565537#2 84686442#0 84686442#1 84686442#2"/>
    </vehicle>
    <vehicle id="72" depart="51.84">
        <route edges="12714428#0 12714428#1 12714428#2 4028986#0 4028986#1 699868651#0 699868651#1 699868651#2 14457581#0 14457581#1 14457581#2 14457581#3 506259783 506259782 32661907 503009617 299348132 12711223#0 12711223#1 12711223#2 12711223#3 12711223#4 12711223#5 12711223#6 12711223#7"/>
    </vehicle>
    <vehicle id="74" depart="53.28">
        <route edges="-12713902#1 -12713902#0 37188841#0 37188841#1 37188841#2 37188841#3 37188841#4 299348132 12711223#0 12711223#1 12711223#2 12711223#3 12711223#4 12711223#5 12711223#6 12711223#7"/>
    </vehicle>
    <vehicle id="75" depart="54.00">
        <route edges="84686444#0 84686444#1 761295146 52511947 84686449#0 84686449#1 16880067#0 16880067#1"/>
    </vehicle>
    <vehicle id="76" depart="54.72">
        <route edges="32661903#0 32661903#1 32661903#2 52511947 84686449#0 84686449#1 16880067#0 16880067#1"/>
    </vehicle>
    <vehicle id="77" depart="55.44">
        <route edges="-12711223#7 -12711223#6 -12711223#5 -12711223#4 12711223#4 12711223#5 12711223#6 12711223#7"/>
    </vehicle>
    <vehicle id="78" depart="56.16">
        <route edges="12714428#0 12714428#1 12714428#2 4028986#0 4028986#1 699868651#0 699868651#1 699868651#2 14457581#0 14457581#1 14457581#2 14457581#3 506259783 506259782 53565537#0 53565537#1 53565537#2 84686449#0 84686449#1 16880067#0 16880067#1"/>
    </vehicle>
    <vehicle id="79" depart="56.88">
        <route edges="-12713902#1 -12713902#0 37188841#0 37188841#1 37188841#2 37188841#3 37188841#4 299348132 12711223#0 12711223#1 12711223#2 12711223#3 12711223#4 12711223#5 12711223#6 12711223#7"/>
    </vehicle>
    <vehicle id="80" depart="57.60">
        <route edges="-12711223#7 -12711223#6 -12711223#5 -12711223#4 -12711223#3 -12711223#2 -12711223#1 -12711223#0 859038260 506259783 506259782 53565537#0 53565537#1 53565537#2 84686449#0 84686449#1 16880067#0 16880067#1"/>
    </vehicle>
    <vehicle id="81" depart="58.32">
        <route edges="-12713902#1 -12713902#0 37188841#0 37188841#1 37188841#2 37188841#3 37188841#4 299348132 859038260 506259783 506259782 53565537#0 53565537#1 53565537#2 84686442#0 84686442#1 84686442#2"/>
    </vehicle>
    <vehicle id="82" depart="59.04">
        <route edges="84686444#0 84686444#1 761295146 503009616#0 503009616#1 503009616#2 503009617 299348132 859038260 506259783 1227455262 32662001#0 32662001#1 -12714428#2 -12714428#1 -12714428#0"/>
    </vehicle>
    <vehicle id="84" depart="60.48">
        <route edges="-12713902#1 -12713902#0 37188841#0 37188841#1 37188841#2 37188841#3 37188841#4 299348132 859038260 506259783 1227455262 32662001#0 32662001#1 -12714428#2 -12714428#1 -12714428#0"/>
    </vehicle>
    <vehicle id="85" depart="61.20">
        <route edges="84686444#0 84686444#1 761295146 52511947 84686449#0 84686449#1 16880067#0 16880067#1"/>
    </vehicle>
    <vehicle id="90" depart="64.80">
        <route edges="591606687#0 591606687#1 761295147"/>
    </vehicle>
    <vehicle id="91" depart="65.52">
        <route edges="84686444#0 84686444#1 761295146 503009616#0 503009616#1 503009616#2 503009617 299348132 859038260 506259783 1227455262 32662001#0 32662001#1 -12714428#2 -12714428#1 -12714428#0"/>
    </vehicle>
    <vehicle id="93" depart="66.96">
        <route edges="84686444#0 84686444#1 761295146 503009616#0 503009616#1 503009616#2 503009617 299348132 12711223#0 12711223#1 12711223#2 12711223#3 12711223#4 12711223#5 12711223#6 12711223#7"/>
    </vehicle>
    <vehicle id="94" depart="67.68">
        <route edges="-12713902#1 -12713902#0 12713902#0 12713902#1"/>
    </vehicle>
    <vehicle id="95" depart="68.40">
        <route edges="12714428#0 12714428#1 12714428#2 4028986#0 4028986#1 699868651#0 699868651#1 699868651#2 14457581#0 14457581#1 14457581#2 14457581#3 506259783 506259782 32661907 503009617 299348132 12711223#0 12711223#1 12711223#2 12711223#3 12711223#4 12711223#5 12711223#6 12711223#7"/>
    </vehicle>
    <vehicle id="96" depart="69.12">
        <route edges="-12713902#1 -12713902#0 37188841#0 37188841#1 37188841#2 37188841#3 37188841#4 299348132 859038260 506259783 506259782 53565537#0 53565537#1 53565537#2 84686442#0 84686442#1 84686442#2"/>
    </vehicle>
    <vehicle id="97" depart="69.84">
        <route edges="32661903#0 32661903#1 32661903#2 52511947 84686442#0 84686442#1 84686442#2"/>
    </vehicle>
    <vehicle id="98" depart="70.56">
        <route edges="32661903#0 32661903#1 32661903#2 503009616#0 503009616#1 503009616#2 503009617 299348132 859038260 506259783 1227455262 32662001#0 32662001#1 -12714428#2 -12714428#1 -12714428#0"/>
    </vehicle>
    <vehicle id="99" depart="71.28">
        <route edges="84686444#0 84686444#1 761295146 52511947 84686442#0 84686442#1 84686442#2"/>
    </vehicle>
    <vehicle id="100" depart="72.00">
        <route edges="84686444#0 84686444#1 761295146 52511947 84686442#0 84686442#1 84686442#2"/>
    </vehicle>
    <vehicle id="102" depart="73.44">
        <route edges="32661903#0 32661903#1 32661903#2 503009616#0 503009616#1 503009616#2 503009617 299348132 12711223#0 12711223#1 12711223#2 12711223#3 12711223#4 12711223#5 12711223#6 12711223#7"/>
    </vehicle>
    <vehicle id="103" depart="74.16">
        <route edges="12714428#0 12714428#1 12714428#2 -12714428#2 -12714428#1 -12714428#0"/>
    </vehicle>
    <vehicle id="104" depart="74.88">
        <route edges="12714428#0 12714428#1 12714428#2 4028986#0 4028986#1 699868651#0 699868651#1 699868651#2 14457581#0 14457581#1 14457581#2 14457581#3 506259783 506259782 53565537#0 53565537#1 53565537#2 84686442#0 84686442#1 84686442#2"/>
    </vehicle>
    <vehicle id="107" depart="77.04">
        <route edges="84686444#0 84686444#1 761295146 52511947 84686442#0 84686442#1 84686442#2"/>
    </vehicle>
    <vehicle id="109" depart="78.48">
        <route edges="-12713902#1 -12713902#0 37188841#0 37188841#1 37188841#2 37188841#3 37188841#4 299348132 12711223#0 12711223#1 12711223#2 12711223#3 12711223#4 12711223#5 12711223#6 12711223#7"/>
    </vehicle>
    <vehicle id="110" depart="79.20">
        <route edges="84686444#0 84686444#1 761295146 52511947 84686449#0 84686449#1 16880067#0 16880067#1"/>
    </vehicle>
    <vehicle id="112" depart="80.64">
        <route edges="-12711223#7 -12711223#6 -12711223#5 -12711223#4 -12711223#3 -12711223#2 -12711223#1 -12711223#0 859038260 506259783 506259782 53565537#0 53565537#1 53565537#2 84686449#0 84686449#1 16880067#0 16880067#1"/>
    </vehicle>
    <vehicle id="113" depart="81.36">
        <route edges="32661903#0 32661903#1 32661903#2 52511947 84686442#0 84686442#1 84686442#2"/>
    </vehicle>
    <vehicle id="114" depart="82.08">
        <route edges="-12713902#1 -12713902#0 37188841#0 37188841#1 37188841#2 37188841#3 37188841#4 299348132 859038260 506259783 506259782 53565537#0 53565537#1 53565537#2 84686442#0 84686442#1 84686442#2"/>
    </vehicle>
    <vehicle id="115" depart="82.80">
        <route edges="-12711223#7 -12711223#6 -12711223#5 -12711223#4 12711223#4 12711223#5 12711223#6 12711223#7"/>
    </vehicle>
    <vehicle id="117" depart="84.24">
        <route edges="-12713902#1 -12713902#0 37188841#0 37188841#1 37188841#2 37188841#3 37188841#4 299348132 859038260 506259783 1227455262 32662001#0 32662001#1 -12714428#2 -12714428#1 -12714428#0"/>
    </vehicle>
    <vehicle id="118" depart="84.96">
        <route edges="84686444#0 84686444#1 761295146 503009616#0 503009616#1 503009616#2 503009617 299348132 12711223#0 12711223#1 12711223#2 12711223#3 12711223#4 12711223#5 12711223#6 12711223#7"/>
    </vehicle>
    <vehicle id="119" depart="85.68">
        <route edges="333459478 37188841#0 37188841#1 37188841#2 37188841#3 37188841#4 299348132 859038260 506259783 506259782 53565537#0 53565537#1 53565537#2 84686449#0 84686449#1 16880067#0 16880067#1"/>
    </vehicle>
    <vehicle id="120" depart="86.40">
        <route edges="12714428#0 12714428#1 12714428#2 4028986#0 4028986#1 699868651#0 699868651#1 699868651#2 14457581#0 14457581#1 14457581#2 14457581#3 506259783 506259782 53565537#0 53565537#1 53565537#2 84686449#0 84686449#1 16880067#0 16880067#1"/>
    </vehicle>
    <vehicle id="121" depart="87.12">
        <route edges="32661903#0 32661903#1 32661903#2 52511947 84686442#0 84686442#1 84686442#2"/>
    </vehicle>
    <vehicle id="123" depart="88.56">
        <route edges="-12713902#1 -12713902#0 12713902#0 12713902#1"/>
    </vehicle>
    <vehicle id="124" depart="89.28">
        <route edges="333459478 37188841#0 37188841#1 37188841#2 37188841#3 37188841#4 299348132 12711223#0 12711223#1 12711223#2 12711223#3 12711223#4 12711223#5 12711223#6 12711223#7"/>
    </vehicle>
    <vehicle id="127" depart="91.44">
        <route edges="84686444#0 84686444#1 761295146 52511947 84686442#0 84686442#1 84686442#2"/>
    </vehicle>
    <vehicle id="128" depart="92.16">
        <route edges="-12711223#7 -12711223#6 -12711223#5 -12711223#4 12711223#4 12711223#5 12711223#6 12711223#7"/>
    </vehicle>
    <vehicle id="129" depart="92.88">
        <route edges="-12713902#1 -12713902#0 37188841#0 37188841#1 37188841#2 37188841#3 37188841#4 299348132 859038260 506259783 506259782 53565537#0 53565537#1 53565537#2 84686442#0 84686442#1 84686442#2"/>
    </vehicle>
    <vehicle id="130" depart="93.60">
        <route edges="84686444#0 84686444#1 761295146 52511947 84686442#0 84686442#1 84686442#2"/>
    </vehicle>
    <vehicle id="131" depart="94.32">
        <route edges="12714428#0 12714428#1 12714428#2 -12714428#2 -12714428#1 -12714428#0"/>
    </vehicle>
    <vehicle id="132" depart="95.04">
        <route edges="591606687#0 591606687#1 761295147"/>
    </vehicle>
    <vehicle id="133" depart="95.76">
        <route edges="333459478 37188841#0 37188841#1 37188841#2 37188841#3 37188841#4 299348132 859038260 506259783 506259782 53565537#0 53565537#1 53565537#2 84686442#0 84686442#1 84686442#2"/>
    </vehicle>
    <vehicle id="134" depart="96.48">
        <route edges="333459478 37188841#0 37188841#1 37188841#2 37188841#3 37188841#4 299348132 859038260 506259783 1227455262 32662001#0 32662001#1 -12714428#2 -12714428#1 -12714428#0"/>
    </vehicle>
    <vehicle id="136" depart="97.92">
        <route edges="333459478 37188841#0 37188841#1 37188841#2 37188841#3 37188841#4 299348132 859038260 506259783 506259782 53565537#0 53565537#1 53565537#2 84686442#0 84686442#1 84686442#2"/>
    </vehicle>
    <vehicle id="137" depart="98.64">
        <route edges="-12711223#7 -12711223#6 -12711223#5 -12711223#4 -12711223#3 -12711223#2 -12711223#1 -12711223#0 859038260 506259783 1227455262 32662001#0 32662001#1 -12714428#2 -12714428#1 -12714428#0"/>
    </vehicle>
    <vehicle id="138" depart="99.36">
        <route edges="-12711223#7 -12711223#6 -12711223#5 -12711223#4 -12711223#3 -12711223#2 -12711223#1 -12711223#0 859038260 506259783 506259782 53565537#0 53565537#1 53565537#2 84686449#0 84686449#1 16880067#0 16880067#1"/>
    </vehicle>
    <vehicle id="139" depart="100.08">
        <route edges="-12713902#1 -12713902#0 37188841#0 37188841#1 37188841#2 37188841#3 37188841#4 299348132 859038260 506259783 506259782 53565537#0 53565537#1 53565537#2 84686449#0 84686449#1 16880067#0 16880067#1"/>
    </vehicle>
    <vehicle id="141" depart="101.52">
        <route edges="333459478 37188841#0 37188841#1 37188841#2 37188841#3 37188841#4 299348132 12711223#0 12711223#1 12711223#2 12711223#3 12711223#4 12711223#5 12711223#6 12711223#7"/>
    </vehicle>
    <vehicle id="142" depart="102.24">
        <route edges="32661903#0 32661903#1 32661903#2 52511947 84686442#0 84686442#1 84686442#2"/>
    </vehicle>
    <vehicle id="144" depart="103.68">
        <route edges="12714428#0 12714428#1 12714428#2 4028986#0 4028986#1 699868651#0 699868651#1 699868651#2 14457581#0 14457581#1 14457581#2 14457581#3 506259783 506259782 32661907 503009617 299348132 12711223#0 12711223#1 12711223#2 12711223#3 12711223#4 12711223#5 12711223#6 12711223#7"/>
    </vehicle>
    <vehicle id="146" depart="105.12">
        <route edges="333459478 37188841#0 37188841#1 37188841#2 37188841#3 37188841#4 299348132 12711223#0 12711223#1 12711223#2 12711223#3 12711223#4 12711223#5 12711223#6 12711223#7"/>
    </vehicle>
    <vehicle id="148" depart="106.56">
        <route edges="12714428#0 12714428#1 12714428#2 -12714428#2 -12714428#1 -12714428#0"/>
    </vehicle>
    <vehicle id="149" depart="107.28">
        <route edges="-12711223#7 -12711223#6 -12711223#5 -12711223#4 -12711223#3 -12711223#2 -12711223#1 -12711223#0 859038260 506259783 506259782 53565537#0 53565537#1 53565537#2 84686442#0 84686442#1 84686442#2"/>
    </vehicle>
    <vehicle id="150" depart="108.00">
        <route edges="84686444#0 84686444#1 761295146 52511947 84686449#0 84686449#1 16880067#0 16880067#1"/>
    </vehicle>
    <vehicle id="152" depart="109.44">
        <route edges="-12713902#1 -12713902#0 37188841#0 37188841#1 37188841#2 37188841#3 37188841#4 299348132 859038260 506259783 1227455262 32662001#0 32662001#1 -12714428#2 -12714428#1 -12714428#0"/>
    </vehicle>
    <vehicle id="153" depart="110.16">
        <route edges="12714428#0 12714428#1 12714428#2 4028986#0 4028986#1 699868651#0 699868651#1 699868651#2 14457581#0 14457581#1 14457581#2 14457581#3 506259783 506259782 53565537#0 53565537#1 53565537#2 84686442#0 84686442#1 84686442#2"/>
    </vehicle>
    <vehicle id="155" depart="111.60">
        <route edges="84686444#0 84686444#1 761295146 503009616#0 503009616#1 503009616#2 503009617 299348132 12711223#0 12711223#1 12711223#2 12711223#3 12711223#4 12711223#5 12711223#6 12711223#7"/>
    </vehicle>
    <vehicle id="156" depart="112.32">
        <route edges="-12713902#1 -12713902#0 37188841#0 37188841#1 37188841#2 37188841#3 37188841#4 299348132 859038260 506259783 1227455262 32662001#0 32662001#1 -12714428#2 -12714428#1 -12714428#0"/>
    </vehicle>
    <vehicle id="158" depart="113.76">
        <route edges="12714428#0 12714428#1 12714428#2 4028986#0 4028986#1 699868651#0 699868651#1 699868651#2 14457581#0 14457581#1 14457581#2 14457581#3 506259783 506259782 53565537#0 53565537#1 53565537#2 84686449#0 84686449#1 16880067#0 16880067#1"/>
    </vehicle>
    <vehicle id="159" depart="114.48">
        <route edges="-12713902#1 -12713902#0 37188841#0 37188841#1 37188841#2 37188841#3 37188841#4 299348132 859038260 506259783 506259782 53565537#0 53565537#1 53565537#2 84686442#0 84686442#1 84686442#2"/>
    </vehicle>
    <vehicle id="160" depart="115.20">
        <route edges="84686444#0 84686444#1 761295146 52511947 84686442#0 84686442#1 84686442#2"/>
    </vehicle>
    <vehicle id="163" depart="117.36">
        <route edges="12714428#0 12714428#1 12714428#2 4028986#0 4028986#1 699868651#0 699868651#1 699868651#2 14457581#0 14457581#1 14457581#2 14457581#3 506259783 506259782 53565537#0 53565537#1 53565537#2 84686442#0 84686442#1 84686442#2"/>
    </vehicle>
    <vehicle id="167" depart="120.24">
        <route edges="84686444#0 84686444#1 761295146 52511947 84686442#0 84686442#1 84686442#2"/>
    </vehicle>
    <vehicle id="169" depart="121.68">
        <route edges="32661903#0 32661903#1 32661903#2 503009616#0 503009616#1 503009616#2 503009617 299348132 12711223#0 12711223#1 12711223#2 12711223#3 12711223#4 12711223#5 12711223#6 12711223#7"/>
    </vehicle>
    <vehicle id="171" depart="123.12">
        <route edges="-12711223#7 -12711223#6 -12711223#5 -12711223#4 12711223#4 12711223#5 12711223#6 12711223#7"/>
    </vehicle>
    <vehicle id="172" depart="123.84">
        <route edges="12714428#0 12714428#1 12714428#2 4028986#0 4028986#1 699868651#0 699868651#1 699868651#2 14457581#0 14457581#1 14457581#2 14457581#3 506259783 506259782 53565537#0 53565537#1 53565537#2 84686442#0 84686442#1 84686442#2"/>
    </vehicle>
    <vehicle id="173" depart="124.56">
        <route edges="84686444#0 84686444#1 761295146 503009616#0 503009616#1 503009616#2 503009617 299348132 12711223#0 12711223#1 12711223#2 12711223#3 12711223#4 12711223#5 12711223#6 12711223#7"/>
    </vehicle>
    <vehicle id="174" depart="125.28">
        <route edges="333459478 12713902#0 12713902#1"/>
    </vehicle>
    <vehicle id="175" depart="126.00">
        <route edges="84686444#0 84686444#1 761295146 52511947 84686449#0 84686449#1 16880067#0 16880067#1"/>
    </vehicle>
    <vehicle id="176" depart="126.72">
        <route edges="84686444#0 84686444#1 761295146 503009616#0 503009616#1 503009616#2 503009617 299348132 859038260 506259783 1227455262 32662001#0 32662001#1 -12714428#2 -12714428#1 -12714428#0"/>
    </vehicle>
    <vehicle id="177" depart="127.44">
        <route edges="84686444#0 84686444#1 761295146 503009616#0 503009616#1 503009616#2 503009617 299348132 12711223#0 12711223#1 12711223#2 12711223#3 12711223#4 12711223#5 12711223#6 12711223#7"/>
    </vehicle>
    <vehicle id="178" depart="128.16">
        <route edges="84686444#0 84686444#1 761295146 503009616#0 503009616#1 503009616#2 503009617 299348132 12711223#0 12711223#1 12711223#2 12711223#3 12711223#4 12711223#5 12711223#6 12711223#7"/>
    </vehicle>
    <vehicle id="181" depart="130.32">
        <route edges="333459478 37188841#0 37188841#1 37188841#2 37188841#3 37188841#4 299348132 859038260 506259783 506259782 53565537#0 53565537#1 53565537#2 84686449#0 84686449#1 16880067#0 16880067#1"/>
    </vehicle>