<?xml version="1.0" encoding="UTF-8"?>

<!-- generated on 2024-09-03 01:38:35 by Eclipse SUMO netconvert Version 1.20.0
<configuration xmlns:xsi="http://www.w3.org/2001/XMLSchema-instance" xsi:noNamespaceSchemaLocation="http://sumo.dlr.de/xsd/netconvertConfiguration.xsd">

    <input>
        <osm-files value="train_files/roundabout/hard/osm_files/map(91).osm"/>
    </input>

    <output>
        <output-file value="train_files/roundabout/hard/outputs/map(91)_dict/map(91)/map(91).net.xml"/>
    </output>

    <projection>
        <proj.utm value="true"/>
    </projection>

    <building_defaults>
        <default.junctions.keep-clear value="false"/>
    </building_defaults>

</configuration>
-->

<net version="1.20" junctionCornerDetail="5" limitTurnSpeed="5.50" xmlns:xsi="http://www.w3.org/2001/XMLSchema-instance" xsi:noNamespaceSchemaLocation="http://sumo.dlr.de/xsd/net_file.xsd">

    <location netOffset="-541781.30,-5971079.58" convBoundary="0.00,0.00,1015.62,1877.67" origBoundary="27.635932,53.886405,27.651127,53.903363" projParameter="+proj=utm +zone=35 +ellps=WGS84 +datum=WGS84 +units=m +no_defs"/>

    <type id="highway.footway" priority="1" numLanes="1" speed="2.78" allow="pedestrian" oneway="1" width="2.00"/>
    <type id="highway.path" priority="1" numLanes="1" speed="5.56" allow="pedestrian bicycle" oneway="0" width="2.00"/>
    <type id="highway.primary" priority="12" numLanes="2" speed="27.78" disallow="tram rail_urban rail rail_electric rail_fast ship container cable_car subway aircraft wheelchair scooter drone" oneway="0"/>
    <type id="highway.secondary" priority="11" numLanes="1" speed="27.78" disallow="tram rail_urban rail rail_electric rail_fast ship container cable_car subway aircraft wheelchair scooter drone" oneway="0"/>
    <type id="highway.service" priority="1" numLanes="1" speed="5.56" allow="pedestrian delivery bicycle" oneway="0"/>
    <type id="highway.steps" priority="1" numLanes="1" speed="1.39" allow="pedestrian" oneway="1" width="2.00"/>

    <edge id=":10132303459_0" function="internal">
        <lane id=":10132303459_0_0" index="0" allow="pedestrian bicycle" speed="2.89" length="2.92" width="2.00" shape="650.92,857.66 650.49,856.87 650.51,856.31 650.97,855.99 651.86,855.90"/>
    </edge>
    <edge id=":1057263805_0" function="internal">
        <lane id=":1057263805_0_0" index="0" allow="pedestrian delivery bicycle" speed="3.65" length="4.67" shape="312.27,883.36 311.54,882.12 311.53,881.23 312.23,880.68 313.66,880.48"/>
    </edge>
    <edge id=":1625448265_0" function="internal">
        <lane id=":1625448265_0_0" index="0" allow="pedestrian delivery bicycle" speed="5.56" length="5.47" shape="579.34,748.52 574.37,746.24"/>
    </edge>
    <edge id=":1625448265_1" function="internal">
        <lane id=":1625448265_1_0" index="0" allow="pedestrian delivery bicycle" speed="3.65" length="1.44" shape="579.34,748.52 578.57,747.30"/>
    </edge>
    <edge id=":1625448265_4" function="internal">
        <lane id=":1625448265_4_0" index="0" allow="pedestrian delivery bicycle" speed="3.65" length="3.23" shape="578.57,747.30 578.54,746.41 579.23,745.84 580.65,745.61"/>
    </edge>
    <edge id=":1625448265_2" function="internal">
        <lane id=":1625448265_2_0" index="0" allow="pedestrian delivery bicycle" speed="5.56" length="5.42" shape="575.73,743.34 580.65,745.61"/>
    </edge>
    <edge id=":1625448265_3" function="internal">
        <lane id=":1625448265_3_0" index="0" allow="pedestrian delivery bicycle" speed="3.65" length="1.44" shape="575.73,743.34 576.48,744.58"/>
    </edge>
    <edge id=":1625448265_5" function="internal">
        <lane id=":1625448265_5_0" index="0" allow="pedestrian delivery bicycle" speed="3.65" length="3.23" shape="576.48,744.58 576.50,745.47 575.79,746.02 574.37,746.24"/>
    </edge>
    <edge id=":1625448435_0" function="internal">
        <lane id=":1625448435_0_0" index="0" allow="pedestrian delivery bicycle" speed="3.65" length="4.67" shape="162.00,1430.94 160.74,1431.63 159.85,1431.62 159.32,1430.90 159.16,1429.46"/>
    </edge>
    <edge id=":2405685409_0" function="internal">
        <lane id=":2405685409_0_0" index="0" allow="pedestrian delivery bicycle" speed="3.65" length="4.67" shape="608.94,969.44 608.43,968.09 608.58,967.21 609.37,966.79 610.81,966.84"/>
    </edge>
    <edge id=":2405685411_0" function="internal">
        <lane id=":2405685411_0_0" index="0" allow="delivery bicycle" speed="6.89" length="7.11" shape="683.59,992.27 682.41,991.76 680.91,991.77 679.07,992.31 676.91,993.37"/>
    </edge>
    <edge id=":2405685411_1" function="internal">
        <lane id=":2405685411_1_0" index="0" disallow="pedestrian tram rail_urban rail rail_electric rail_fast ship container cable_car subway aircraft wheelchair scooter drone" speed="16.67" length="10.03" shape="683.59,992.27 675.58,986.28"/>
        <lane id=":2405685411_1_1" index="1" disallow="pedestrian tram rail_urban rail rail_electric rail_fast ship container cable_car subway aircraft wheelchair scooter drone" speed="16.67" length="10.03" shape="685.54,989.73 677.48,983.71"/>
    </edge>
    <edge id=":2405685411_3" function="internal">
        <lane id=":2405685411_3_0" index="0" allow="delivery bicycle" speed="4.72" length="5.61" shape="675.33,990.59 676.63,989.59 677.11,988.53 676.76,987.43 675.58,986.28"/>
    </edge>
    <edge id=":2405685411_4" function="internal">
        <lane id=":2405685411_4_0" index="0" allow="pedestrian delivery bicycle" speed="3.65" length="4.67" shape="675.33,990.59 676.77,990.69 677.51,991.19 677.56,992.08 676.91,993.37"/>
    </edge>
    <edge id=":2408641443_0" function="internal">
        <lane id=":2408641443_0_0" index="0" allow="pedestrian delivery bicycle" speed="5.56" length="9.25" shape="676.64,993.53 668.56,998.04"/>
    </edge>
    <edge id=":2408641443_1" function="internal">
        <lane id=":2408641443_1_0" index="0" allow="pedestrian delivery bicycle" speed="3.65" length="1.44" shape="676.64,993.53 675.20,993.43"/>
    </edge>
    <edge id=":2408641443_4" function="internal">
        <lane id=":2408641443_4_0" index="0" allow="pedestrian delivery bicycle" speed="3.65" length="3.23" shape="675.20,993.43 674.45,992.93 674.40,992.04 675.05,990.75"/>
    </edge>
    <edge id=":2408641443_2" function="internal">
        <lane id=":2408641443_2_0" index="0" allow="pedestrian delivery bicycle" speed="5.56" length="9.19" shape="667.03,995.23 675.05,990.75"/>
    </edge>
    <edge id=":2408641443_3" function="internal">
        <lane id=":2408641443_3_0" index="0" allow="pedestrian delivery bicycle" speed="3.65" length="1.44" shape="667.03,995.23 668.47,995.36"/>
    </edge>
    <edge id=":2408641443_5" function="internal">
        <lane id=":2408641443_5_0" index="0" allow="pedestrian delivery bicycle" speed="3.65" length="3.23" shape="668.47,995.36 669.20,995.87 669.23,996.76 668.56,998.04"/>
    </edge>
    <edge id=":2408641478_0" function="internal">
        <lane id=":2408641478_0_0" index="0" allow="pedestrian delivery bicycle" speed="1.39" length="5.98" shape="547.42,1019.46 545.67,1018.78 544.19,1018.67 543.00,1019.11 542.09,1020.11"/>
    </edge>
    <edge id=":2408641478_1" function="internal">
        <lane id=":2408641478_1_0" index="0" allow="pedestrian delivery bicycle" speed="1.39" length="11.65" shape="547.42,1019.46 544.69,1017.56 543.49,1015.37 543.83,1012.90 545.71,1010.15"/>
    </edge>
    <edge id=":2408641478_2" function="internal">
        <lane id=":2408641478_2_0" index="0" allow="pedestrian delivery bicycle" speed="1.39" length="4.67" shape="547.42,1019.46 546.71,1018.20 546.71,1017.31 547.43,1016.78 548.86,1016.60"/>
    </edge>
    <edge id=":2408641478_3" function="internal">
        <lane id=":2408641478_3_0" index="0" allow="pedestrian delivery bicycle" speed="1.39" length="5.37" shape="548.07,1012.31 547.20,1013.58 547.05,1014.72 547.60,1015.72 548.86,1016.60"/>
    </edge>
    <edge id=":2408641478_4" function="internal">
        <lane id=":2408641478_4_0" index="0" allow="pedestrian delivery bicycle" speed="1.39" length="9.86" shape="548.07,1012.31 546.09,1014.47 544.79,1015.99 543.63,1017.62 542.09,1020.11"/>
    </edge>
    <edge id=":2408641478_5" function="internal">
        <lane id=":2408641478_5_0" index="0" allow="pedestrian delivery bicycle" speed="1.39" length="4.67" shape="548.07,1012.31 546.67,1012.65 545.81,1012.41 545.49,1011.57 545.71,1010.15"/>
    </edge>
    <edge id=":2408641478_6" function="internal">
        <lane id=":2408641478_6_0" index="0" allow="pedestrian delivery bicycle" speed="1.39" length="10.50" shape="539.35,1018.47 540.95,1015.88 542.23,1014.08 543.65,1012.40 545.71,1010.15"/>
    </edge>
    <edge id=":2408641478_7" function="internal">
        <lane id=":2408641478_7_0" index="0" allow="pedestrian delivery bicycle" speed="1.39" length="10.85" shape="539.35,1018.47 541.09,1016.43 543.26,1015.45 545.85,1015.50 548.86,1016.60"/>
    </edge>
    <edge id=":2408641478_8" function="internal">
        <lane id=":2408641478_8_0" index="0" allow="pedestrian delivery bicycle" speed="1.39" length="4.67" shape="539.35,1018.47 540.65,1017.85 541.55,1017.92 542.03,1018.67 542.09,1020.11"/>
    </edge>
    <edge id=":2408641527_0" function="internal">
        <lane id=":2408641527_0_0" index="0" allow="pedestrian delivery bicycle" speed="1.39" length="4.67" shape="474.12,1146.93 472.87,1147.65 471.97,1147.66 471.43,1146.94 471.25,1145.51"/>
    </edge>
    <edge id=":2408641538_0" function="internal">
        <lane id=":2408641538_0_0" index="0" allow="pedestrian delivery bicycle" speed="1.39" length="4.67" shape="732.87,1186.57 733.45,1187.89 733.36,1188.78 732.59,1189.23 731.15,1189.26"/>
    </edge>
    <edge id=":275053824_0" function="internal">
        <lane id=":275053824_0_0" index="0" disallow="pedestrian tram rail_urban rail rail_electric rail_fast ship container cable_car subway aircraft wheelchair scooter drone" speed="16.67" length="5.92" shape="598.98,783.39 598.27,784.79 597.83,785.77 597.47,786.79 597.02,788.30"/>
        <lane id=":275053824_0_1" index="1" disallow="pedestrian tram rail_urban rail rail_electric rail_fast ship container cable_car subway aircraft wheelchair scooter drone" speed="16.67" length="5.92" shape="596.14,781.92 595.34,783.48 594.85,784.58 594.45,785.72 593.95,787.40"/>
        <lane id=":275053824_0_2" index="2" disallow="pedestrian tram rail_urban rail rail_electric rail_fast ship container cable_car subway aircraft wheelchair scooter drone" speed="16.67" length="5.92" shape="593.29,780.45 592.42,782.18 591.87,783.39 591.43,784.65 590.88,786.50"/>
    </edge>
    <edge id=":275053837_0" function="internal">
        <lane id=":275053837_0_0" index="0" disallow="pedestrian tram rail_urban rail rail_electric rail_fast ship container cable_car subway aircraft wheelchair scooter drone" speed="16.67" length="3.75" shape="484.63,934.78 485.06,930.93"/>
        <lane id=":275053837_0_1" index="1" disallow="pedestrian tram rail_urban rail rail_electric rail_fast ship container cable_car subway aircraft wheelchair scooter drone" speed="16.67" length="3.75" shape="487.82,935.06 488.23,931.33"/>
        <lane id=":275053837_0_2" index="2" disallow="pedestrian tram rail_urban rail rail_electric rail_fast ship container cable_car subway aircraft wheelchair scooter drone" speed="16.67" length="3.75" shape="491.00,935.34 491.40,931.74"/>
    </edge>
    <edge id=":2857769886_0" function="internal">
        <lane id=":2857769886_0_0" index="0" disallow="pedestrian tram rail_urban rail rail_electric rail_fast ship container cable_car subway aircraft wheelchair scooter drone" speed="16.67" length="5.01" shape="629.04,932.08 633.00,935.14"/>
        <lane id=":2857769886_0_1" index="1" disallow="pedestrian tram rail_urban rail rail_electric rail_fast ship container cable_car subway aircraft wheelchair scooter drone" speed="16.67" length="5.01" shape="627.08,934.61 631.04,937.67"/>
    </edge>
    <edge id=":300649141_0" function="internal">
        <lane id=":300649141_0_0" index="0" disallow="pedestrian tram rail_urban rail rail_electric rail_fast ship container cable_car subway aircraft wheelchair scooter drone" speed="16.67" length="6.25" shape="595.66,906.49 600.85,910.19"/>
        <lane id=":300649141_0_1" index="1" disallow="pedestrian tram rail_urban rail rail_electric rail_fast ship container cable_car subway aircraft wheelchair scooter drone" speed="16.67" length="6.25" shape="593.90,909.16 598.89,912.72"/>
    </edge>
    <edge id=":3471962198_0" function="internal">
        <lane id=":3471962198_0_0" index="0" allow="pedestrian bicycle" speed="2.89" length="2.92" width="2.00" shape="437.34,782.51 436.47,782.26 436.08,781.86 436.17,781.31 436.73,780.60"/>
    </edge>
    <edge id=":3471962201_0" function="internal">
        <lane id=":3471962201_0_0" index="0" allow="pedestrian bicycle" speed="5.56" length="9.31" width="2.00" shape="558.32,738.68 556.13,737.96 553.93,737.86 551.70,738.37 549.45,739.50"/>
    </edge>
    <edge id=":3471962201_1" function="internal">
        <lane id=":3471962201_1_0" index="0" allow="pedestrian delivery bicycle" speed="5.56" length="10.92" shape="558.32,738.68 548.42,734.08"/>
    </edge>
    <edge id=":3471962201_2" function="internal">
        <lane id=":3471962201_2_0" index="0" allow="pedestrian bicycle" speed="5.56" length="10.49" width="2.00" shape="558.32,738.68 556.03,737.10 555.22,735.20 555.91,732.99 558.09,730.47"/>
    </edge>
    <edge id=":3471962201_3" function="internal">
        <lane id=":3471962201_3_0" index="0" allow="pedestrian delivery bicycle" speed="3.65" length="4.67" shape="558.32,738.68 557.57,737.45 557.55,736.55 558.26,736.00 559.68,735.79"/>
    </edge>
    <edge id=":3471962201_4" function="internal">
        <lane id=":3471962201_4_0" index="0" allow="pedestrian bicycle" speed="4.32" length="4.92" width="2.00" shape="559.44,731.95 558.45,733.11 558.16,734.14 558.57,735.03 559.68,735.79"/>
    </edge>
    <edge id=":3471962201_5" function="internal">
        <lane id=":3471962201_5_0" index="0" allow="pedestrian bicycle" speed="5.56" length="12.54" width="2.00" shape="559.44,731.95 556.92,734.18 554.64,735.99 552.27,737.67 549.45,739.50"/>
    </edge>
    <edge id=":3471962201_6" function="internal">
        <lane id=":3471962201_6_0" index="0" allow="pedestrian bicycle" speed="5.56" length="11.96" width="2.00" shape="559.44,731.95 556.79,733.88 554.07,734.88 551.28,734.95 548.42,734.08"/>
    </edge>
    <edge id=":3471962201_7" function="internal">
        <lane id=":3471962201_7_0" index="0" allow="pedestrian bicycle" speed="2.89" length="2.92" width="2.00" shape="559.44,731.95 558.55,732.09 558.02,731.89 557.87,731.35 558.09,730.47"/>
    </edge>
    <edge id=":3471962201_8" function="internal">
        <lane id=":3471962201_8_0" index="0" allow="pedestrian bicycle" speed="5.56" length="8.90" width="2.00" shape="549.75,731.17 552.16,732.00 554.36,732.16 556.33,731.65 558.09,730.47"/>
    </edge>
    <edge id=":3471962201_9" function="internal">
        <lane id=":3471962201_9_0" index="0" allow="pedestrian delivery bicycle" speed="5.56" length="10.95" shape="549.75,731.17 559.68,735.79"/>
    </edge>
    <edge id=":3471962201_10" function="internal">
        <lane id=":3471962201_10_0" index="0" allow="pedestrian bicycle" speed="5.56" length="11.64" width="2.00" shape="549.75,731.17 552.52,732.98 553.40,734.96 552.37,737.14 549.45,739.50"/>
    </edge>
    <edge id=":3471962201_11" function="internal">
        <lane id=":3471962201_11_0" index="0" allow="pedestrian delivery bicycle" speed="3.65" length="4.67" shape="549.75,731.17 550.51,732.40 550.54,733.30 549.84,733.86 548.42,734.08"/>
    </edge>
    <edge id=":3471962201_12" function="internal">
        <lane id=":3471962201_12_0" index="0" allow="pedestrian bicycle" speed="4.24" length="5.22" width="2.00" shape="548.38,737.81 549.67,736.76 550.10,735.79 549.68,734.90 548.42,734.08"/>
    </edge>
    <edge id=":3471962201_13" function="internal">
        <lane id=":3471962201_13_0" index="0" allow="pedestrian bicycle" speed="5.56" length="12.19" width="2.00" shape="548.38,737.81 551.16,736.01 553.43,734.40 555.61,732.67 558.09,730.47"/>
    </edge>
    <edge id=":3471962201_14" function="internal">
        <lane id=":3471962201_14_0" index="0" allow="pedestrian bicycle" speed="5.56" length="11.96" width="2.00" shape="548.38,737.81 551.58,736.10 554.53,735.20 557.23,735.09 559.68,735.79"/>
    </edge>
    <edge id=":3471962201_15" function="internal">
        <lane id=":3471962201_15_0" index="0" allow="pedestrian bicycle" speed="2.89" length="2.92" width="2.00" shape="548.38,737.81 549.28,737.83 549.76,738.12 549.82,738.68 549.45,739.50"/>
    </edge>
    <edge id=":3471962203_0" function="internal">
        <lane id=":3471962203_0_0" index="0" allow="pedestrian bicycle" speed="2.89" length="2.92" width="2.00" shape="602.34,690.21 603.24,690.26 603.71,690.56 603.75,691.12 603.36,691.93"/>
    </edge>
    <edge id=":3471962204_0" function="internal">
        <lane id=":3471962204_0_0" index="0" allow="pedestrian bicycle" speed="5.56" length="8.20" width="2.00" shape="531.71,750.74 529.65,752.04 528.22,752.89 526.75,753.67 524.58,754.77"/>
    </edge>
    <edge id=":3471962204_1" function="internal">
        <lane id=":3471962204_1_0" index="0" allow="pedestrian bicycle" speed="2.89" length="2.40" width="2.00" shape="531.71,750.74 530.81,750.72 530.33,750.44 530.27,749.88 530.43,749.53"/>
    </edge>
    <edge id=":3471962204_4" function="internal">
        <lane id=":3471962204_4_0" index="0" allow="pedestrian bicycle" speed="2.89" length="0.52" width="2.00" shape="530.43,749.53 530.64,749.06"/>
    </edge>
    <edge id=":3471962204_2" function="internal">
        <lane id=":3471962204_2_0" index="0" allow="pedestrian bicycle" speed="5.56" length="8.00" width="2.00" shape="523.68,752.99 525.79,751.92 527.23,751.15 528.63,750.32 530.64,749.06"/>
    </edge>
    <edge id=":3471962204_3" function="internal">
        <lane id=":3471962204_3_0" index="0" allow="pedestrian bicycle" speed="2.89" length="2.39" width="2.00" shape="523.68,752.99 524.57,753.10 525.02,753.43 525.02,753.99 524.84,754.31"/>
    </edge>
    <edge id=":3471962204_5" function="internal">
        <lane id=":3471962204_5_0" index="0" allow="pedestrian bicycle" speed="2.89" length="0.54" width="2.00" shape="524.84,754.31 524.58,754.77"/>
    </edge>
    <edge id=":3535812497_0" function="internal">
        <lane id=":3535812497_0_0" index="0" allow="pedestrian delivery bicycle" speed="5.56" length="6.19" shape="672.19,869.75 677.23,873.34"/>
    </edge>
    <edge id=":3535812497_1" function="internal">
        <lane id=":3535812497_1_0" index="0" allow="pedestrian delivery bicycle" speed="5.07" length="5.01" shape="672.89,874.08 673.85,873.09 674.89,872.64 676.02,872.72 677.23,873.34"/>
    </edge>
    <edge id=":3542203728_0" function="internal">
        <lane id=":3542203728_0_0" index="0" disallow="pedestrian tram rail_urban rail rail_electric rail_fast ship container cable_car subway aircraft wheelchair scooter drone" speed="16.67" length="0.30" shape="671.62,596.97 671.74,596.72"/>
        <lane id=":3542203728_0_1" index="1" disallow="pedestrian tram rail_urban rail rail_electric rail_fast ship container cable_car subway aircraft wheelchair scooter drone" speed="16.67" length="0.30" shape="674.46,598.44 674.60,598.17"/>
        <lane id=":3542203728_0_2" index="2" disallow="pedestrian tram rail_urban rail rail_electric rail_fast ship container cable_car subway aircraft wheelchair scooter drone" speed="16.67" length="0.30" shape="677.31,599.90 677.45,599.62"/>
    </edge>
    <edge id=":3561753420_0" function="internal">
        <lane id=":3561753420_0_0" index="0" allow="pedestrian bicycle" speed="2.89" length="2.92" width="2.00" shape="647.61,853.06 647.28,853.90 646.85,854.25 646.31,854.11 645.66,853.49"/>
    </edge>
    <edge id=":3561753423_0" function="internal">
        <lane id=":3561753423_0_0" index="0" allow="pedestrian delivery bicycle" speed="5.03" length="5.01" shape="650.78,904.56 651.42,903.34 651.51,902.22 651.06,901.18 650.07,900.23"/>
    </edge>
    <edge id=":3561753423_1" function="internal">
        <lane id=":3561753423_1_0" index="0" allow="pedestrian delivery bicycle" speed="5.56" length="6.20" shape="650.78,904.56 654.42,899.54"/>
    </edge>
    <edge id=":425311731_0" function="internal">
        <lane id=":425311731_0_0" index="0" disallow="pedestrian tram rail_urban rail rail_electric rail_fast ship container cable_car subway aircraft wheelchair scooter drone" speed="16.67" length="15.86" shape="533.34,947.60 520.25,956.54"/>
        <lane id=":425311731_0_1" index="1" disallow="pedestrian tram rail_urban rail rail_electric rail_fast ship container cable_car subway aircraft wheelchair scooter drone" speed="16.67" length="16.70" shape="533.34,947.60 529.14,950.05 525.71,950.79 522.30,951.56 518.18,954.10"/>
        <lane id=":425311731_0_2" index="2" disallow="pedestrian tram rail_urban rail rail_electric rail_fast ship container cable_car subway aircraft wheelchair scooter drone" speed="16.67" length="18.24" shape="533.34,947.60 528.69,949.77 524.67,949.56 520.69,949.39 516.12,951.65"/>
    </edge>
    <edge id=":425311731_3" function="internal">
        <lane id=":425311731_3_0" index="0" disallow="pedestrian tram rail_urban rail rail_electric rail_fast ship container cable_car subway aircraft wheelchair scooter drone" speed="12.91" length="15.41" shape="531.34,945.11 528.23,946.92 524.41,947.93 519.88,948.14 514.64,947.56"/>
        <lane id=":425311731_3_1" index="1" disallow="pedestrian tram rail_urban rail rail_electric rail_fast ship container cable_car subway aircraft wheelchair scooter drone" speed="12.18" length="15.41" shape="529.34,942.61 526.76,944.03 523.41,944.78 519.30,944.86 514.42,944.27"/>
        <lane id=":425311731_3_2" index="2" disallow="pedestrian tram rail_urban rail rail_electric rail_fast ship container cable_car subway aircraft wheelchair scooter drone" speed="11.42" length="15.41" shape="527.34,940.11 525.29,941.15 522.42,941.63 518.72,941.58 514.19,940.98"/>
    </edge>
    <edge id=":425311760_0" function="internal">
        <lane id=":425311760_0_0" index="0" disallow="pedestrian tram rail_urban rail rail_electric rail_fast ship container cable_car subway aircraft wheelchair scooter drone" speed="15.07" length="14.92" shape="494.87,935.74 491.45,931.68 488.49,928.99 486.59,926.05 486.31,921.25"/>
        <lane id=":425311760_0_1" index="1" disallow="pedestrian tram rail_urban rail rail_electric rail_fast ship container cable_car subway aircraft wheelchair scooter drone" speed="14.37" length="14.92" shape="497.80,934.37 494.62,930.76 491.75,928.45 489.83,925.91 489.49,921.63"/>
        <lane id=":425311760_0_2" index="2" disallow="pedestrian tram rail_urban rail rail_electric rail_fast ship container cable_car subway aircraft wheelchair scooter drone" speed="10.75" length="14.92" shape="500.86,932.94 497.13,929.35 494.53,926.33 493.04,923.88 492.67,922.00"/>
        <lane id=":425311760_0_3" index="3" disallow="pedestrian tram rail_urban rail rail_electric rail_fast ship container cable_car subway aircraft wheelchair scooter drone" speed="10.06" length="14.92" shape="500.86,932.94 498.43,930.36 496.78,927.74 495.92,925.08 495.84,922.37"/>
    </edge>
    <edge id=":425311760_4" function="internal">
        <lane id=":425311760_4_0" index="0" disallow="pedestrian tram rail_urban rail rail_electric rail_fast ship container cable_car subway aircraft wheelchair scooter drone" speed="16.67" length="10.23" shape="485.08,930.73 484.96,927.79 484.12,925.81 483.28,923.82 483.13,920.88"/>
        <lane id=":425311760_4_1" index="1" disallow="pedestrian tram rail_urban rail rail_electric rail_fast ship container cable_car subway aircraft wheelchair scooter drone" speed="16.67" length="10.23" shape="488.26,931.13 488.14,928.19 487.30,926.20 486.46,924.21 486.31,921.25"/>
        <lane id=":425311760_4_2" index="2" disallow="pedestrian tram rail_urban rail rail_electric rail_fast ship container cable_car subway aircraft wheelchair scooter drone" speed="16.67" length="10.23" shape="491.43,931.54 491.31,928.58 490.48,926.58 489.63,924.59 489.49,921.63"/>
    </edge>
    <edge id=":425311828_0" function="internal">
        <lane id=":425311828_0_0" index="0" disallow="pedestrian tram rail_urban rail rail_electric rail_fast ship container cable_car subway aircraft wheelchair scooter drone" speed="8.47" length="13.85" shape="587.77,888.04 586.08,892.75 585.44,896.48 585.83,899.23 587.27,901.00"/>
    </edge>
    <edge id=":425311828_1" function="internal">
        <lane id=":425311828_1_0" index="0" disallow="pedestrian tram rail_urban rail rail_electric rail_fast ship container cable_car subway aircraft wheelchair scooter drone" speed="16.67" length="17.43" shape="584.83,886.79 582.98,891.93 582.03,895.60 580.77,899.11 578.03,903.76"/>
        <lane id=":425311828_1_1" index="1" disallow="pedestrian tram rail_urban rail rail_electric rail_fast ship container cable_car subway aircraft wheelchair scooter drone" speed="16.67" length="17.43" shape="581.88,885.54 580.11,890.50 579.21,894.06 578.03,897.45 575.39,901.95"/>
        <lane id=":425311828_1_2" index="2" disallow="pedestrian tram rail_urban rail rail_electric rail_fast ship container cable_car subway aircraft wheelchair scooter drone" speed="16.67" length="17.43" shape="578.94,884.28 577.24,889.08 576.40,892.52 575.28,895.80 572.75,900.14"/>
        <lane id=":425311828_1_3" index="3" disallow="pedestrian tram rail_urban rail rail_electric rail_fast ship container cable_car subway aircraft wheelchair scooter drone" speed="16.67" length="17.43" shape="575.99,883.03 574.37,887.65 573.59,890.97 572.54,894.15 570.12,898.33"/>
    </edge>
    <edge id=":425311828_5" function="internal">
        <lane id=":425311828_5_0" index="0" disallow="pedestrian tram rail_urban rail rail_electric rail_fast ship container cable_car subway aircraft wheelchair scooter drone" speed="16.67" length="24.13" shape="569.57,884.81 575.25,889.55 578.92,893.50 582.34,897.15 587.27,901.00"/>
        <lane id=":425311828_5_1" index="1" disallow="pedestrian tram rail_urban rail rail_electric rail_fast ship container cable_car subway aircraft wheelchair scooter drone" speed="16.67" length="24.13" shape="567.68,887.39 573.41,892.17 577.12,896.15 580.58,899.82 585.52,903.68"/>
    </edge>
    <edge id=":425311830_0" function="internal">
        <lane id=":425311830_0_0" index="0" disallow="pedestrian tram rail_urban rail rail_electric rail_fast ship container cable_car subway aircraft wheelchair scooter drone" speed="16.67" length="34.92" shape="541.25,810.87 549.70,804.29 555.86,799.68 561.41,795.09 568.05,788.56"/>
        <lane id=":425311830_0_1" index="1" disallow="pedestrian tram rail_urban rail rail_electric rail_fast ship container cable_car subway aircraft wheelchair scooter drone" speed="16.67" length="35.19" shape="541.25,810.87 550.06,804.65 556.93,800.88 563.18,797.14 570.15,791.01"/>
        <lane id=":425311830_0_2" index="2" disallow="pedestrian tram rail_urban rail rail_electric rail_fast ship container cable_car subway aircraft wheelchair scooter drone" speed="16.67" length="35.82" shape="541.25,810.87 550.47,804.97 558.05,802.04 564.97,799.18 572.24,793.45"/>
    </edge>
    <edge id=":425311830_3" function="internal">
        <lane id=":425311830_3_0" index="0" disallow="pedestrian tram rail_urban rail rail_electric rail_fast ship container cable_car subway aircraft wheelchair scooter drone" speed="15.34" length="27.32" shape="541.25,810.87 547.68,806.76 554.52,804.49 561.75,804.08 569.38,805.52"/>
        <lane id=":425311830_3_1" index="1" disallow="pedestrian tram rail_urban rail rail_electric rail_fast ship container cable_car subway aircraft wheelchair scooter drone" speed="14.91" length="27.32" shape="543.26,813.36 549.11,809.71 555.50,807.77 562.44,807.54 569.92,809.02"/>
        <lane id=":425311830_3_2" index="2" disallow="pedestrian tram rail_urban rail rail_electric rail_fast ship container cable_car subway aircraft wheelchair scooter drone" speed="14.47" length="27.32" shape="545.27,815.85 550.53,812.66 556.49,811.04 563.14,811.00 570.47,812.53"/>
        <lane id=":425311830_3_3" index="3" disallow="pedestrian tram rail_urban rail rail_electric rail_fast ship container cable_car subway aircraft wheelchair scooter drone" speed="14.01" length="27.32" shape="547.28,818.34 551.96,815.61 557.48,814.32 563.83,814.46 571.02,816.04"/>
    </edge>
    <edge id=":425311835_0" function="internal">
        <lane id=":425311835_0_0" index="0" disallow="pedestrian tram rail_urban rail rail_electric rail_fast ship container cable_car subway aircraft wheelchair scooter drone" speed="16.67" length="22.95" shape="593.50,809.58 593.37,816.25 593.76,820.81 594.34,825.37 594.77,832.04"/>
        <lane id=":425311835_0_1" index="1" disallow="pedestrian tram rail_urban rail rail_electric rail_fast ship container cable_car subway aircraft wheelchair scooter drone" speed="16.67" length="22.95" shape="590.32,809.25 590.17,816.04 590.56,820.68 591.14,825.33 591.57,832.13"/>
        <lane id=":425311835_0_2" index="2" disallow="pedestrian tram rail_urban rail rail_electric rail_fast ship container cable_car subway aircraft wheelchair scooter drone" speed="16.67" length="22.95" shape="587.13,808.92 586.98,815.83 587.36,820.56 587.94,825.30 588.37,832.22"/>
    </edge>
    <edge id=":425311835_3" function="internal">
        <lane id=":425311835_3_0" index="0" disallow="pedestrian tram rail_urban rail rail_electric rail_fast ship container cable_car subway aircraft wheelchair scooter drone" speed="15.59" length="22.38" shape="580.80,810.94 585.38,815.68 588.70,820.78 590.77,826.27 591.57,832.13"/>