<?xml version="1.0" encoding="UTF-8"?>

<!-- generated on 2024-09-03 01:36:57 by Eclipse SUMO netconvert Version 1.20.0
<configuration xmlns:xsi="http://www.w3.org/2001/XMLSchema-instance" xsi:noNamespaceSchemaLocation="http://sumo.dlr.de/xsd/netconvertConfiguration.xsd">

    <input>
        <osm-files value="train_files/roundabout/easy/osm_files/map(52).osm"/>
    </input>

    <output>
        <output-file value="train_files/roundabout/easy/outputs/map(52)_dict/map(52)/map(52).net.xml"/>
    </output>

    <projection>
        <proj.utm value="true"/>
    </projection>

    <building_defaults>
        <default.junctions.keep-clear value="false"/>
    </building_defaults>

</configuration>
-->

<net version="1.20" junctionCornerDetail="5" limitTurnSpeed="5.50" xmlns:xsi="http://www.w3.org/2001/XMLSchema-instance" xsi:noNamespaceSchemaLocation="http://sumo.dlr.de/xsd/net_file.xsd">

    <location netOffset="-470503.28,-5413850.51" convBoundary="0.00,0.00,691.03,401.77" origBoundary="2.597693,48.876922,2.607128,48.880545" projParameter="+proj=utm +zone=31 +ellps=WGS84 +datum=WGS84 +units=m +no_defs"/>

    <type id="highway.cycleway" priority="1" numLanes="1" speed="5.56" allow="bicycle" oneway="0" width="2.00"/>
    <type id="highway.footway" priority="1" numLanes="1" speed="2.78" allow="pedestrian" oneway="1" width="2.00"/>
    <type id="highway.residential" priority="3" numLanes="1" speed="13.89" disallow="tram rail_urban rail rail_electric rail_fast ship container cable_car subway aircraft wheelchair scooter drone" oneway="0"/>
    <type id="highway.tertiary" priority="10" numLanes="1" speed="22.22" disallow="tram rail_urban rail rail_electric rail_fast ship container cable_car subway aircraft wheelchair scooter drone" oneway="0"/>
    <type id="highway.unclassified" priority="4" numLanes="1" speed="13.89" disallow="tram rail_urban rail rail_electric rail_fast ship container cable_car subway aircraft wheelchair scooter drone" oneway="0"/>

    <edge id=":1295199067_0" function="internal">
        <lane id=":1295199067_0_0" index="0" allow="bicycle" speed="5.56" length="0.10" width="1.50" shape="405.85,112.56 405.83,112.60"/>
    </edge>
    <edge id=":1295199067_1" function="internal">
        <lane id=":1295199067_1_0" index="0" allow="bicycle" speed="5.56" length="0.10" width="1.50" shape="404.45,112.02 404.46,112.00"/>
    </edge>
    <edge id=":1354991831_0" function="internal">
        <lane id=":1354991831_0_0" index="0" disallow="tram rail_urban rail rail_electric rail_fast ship container cable_car subway aircraft wheelchair scooter drone" speed="13.89" length="0.38" shape="10.95,264.37 10.92,264.41 10.89,264.44 10.87,264.47 10.83,264.51"/>
        <lane id=":1354991831_0_1" index="1" disallow="tram rail_urban rail rail_electric rail_fast ship container cable_car subway aircraft wheelchair scooter drone" speed="13.89" length="0.38" shape="8.59,262.21 8.48,262.33 8.40,262.42 8.33,262.51 8.23,262.65"/>
    </edge>
    <edge id=":1354991900_0" function="internal">
        <lane id=":1354991900_0_0" index="0" allow="bicycle" speed="2.50" length="2.19" width="1.50" shape="13.28,275.64 12.68,275.95 12.26,275.92 12.02,275.58 11.97,274.90"/>
    </edge>
    <edge id=":2382494757_0" function="internal">
        <lane id=":2382494757_0_0" index="0" allow="bicycle" speed="2.50" length="2.19" width="1.50" shape="264.40,17.94 263.98,18.47 263.59,18.63 263.23,18.41 262.91,17.81"/>
    </edge>
    <edge id=":2386921344_0" function="internal">
        <lane id=":2386921344_0_0" index="0" allow="bicycle" speed="4.03" length="3.65" width="1.50" shape="412.89,96.28 412.60,97.26 412.71,98.06 413.21,98.69 414.12,99.15"/>
    </edge>
    <edge id=":2386921344_1" function="internal">
        <lane id=":2386921344_1_0" index="0" allow="bicycle" speed="5.56" length="6.38" width="1.50" shape="412.89,96.28 410.28,102.10"/>
    </edge>
    <edge id=":2386921344_2" function="internal">
        <lane id=":2386921344_2_0" index="0" allow="bicycle" speed="2.50" length="2.19" width="1.50" shape="412.89,96.28 412.31,96.63 411.89,96.65 411.63,96.32 411.53,95.65"/>
    </edge>
    <edge id=":2386921344_3" function="internal">
        <lane id=":2386921344_3_0" index="0" allow="bicycle" speed="4.12" length="2.90" width="1.50" shape="409.69,97.55 410.30,97.54 410.80,97.08 411.19,96.38 411.53,95.65"/>
    </edge>
    <edge id=":2386921344_4" function="internal">
        <lane id=":2386921344_4_0" index="0" disallow="tram rail_urban rail rail_electric rail_fast ship container cable_car subway aircraft wheelchair scooter drone" speed="13.89" length="4.77" shape="409.36,98.33 413.85,99.95"/>
    </edge>
    <edge id=":2386921344_5" function="internal">
        <lane id=":2386921344_5_0" index="0" allow="bicycle" speed="4.45" length="3.70" width="1.50" shape="409.04,99.12 409.92,99.64 410.42,100.31 410.54,101.13 410.28,102.10"/>
    </edge>
    <edge id=":2386921344_6" function="internal">
        <lane id=":2386921344_6_0" index="0" allow="bicycle" speed="5.56" length="6.42" width="1.50" shape="408.90,101.51 411.53,95.65"/>
    </edge>
    <edge id=":2386921344_7" function="internal">
        <lane id=":2386921344_7_0" index="0" allow="bicycle" speed="5.56" length="6.42" width="1.50" shape="408.90,101.51 409.81,100.01 410.98,99.12 412.42,98.83 414.12,99.15"/>
    </edge>
    <edge id=":2386921344_8" function="internal">
        <lane id=":2386921344_8_0" index="0" allow="bicycle" speed="2.50" length="2.19" width="1.50" shape="408.90,101.51 409.47,101.14 409.89,101.12 410.16,101.44 410.28,102.10"/>
    </edge>
    <edge id=":2386921346_0" function="internal">
        <lane id=":2386921346_0_0" index="0" allow="bicycle" speed="4.57" length="3.74" width="1.50" shape="409.05,111.14 407.99,110.92 407.11,111.05 406.43,111.51 405.94,112.32"/>
    </edge>
    <edge id=":2386921346_1" function="internal">
        <lane id=":2386921346_1_0" index="0" disallow="tram rail_urban rail rail_electric rail_fast ship container cable_car subway aircraft wheelchair scooter drone" speed="13.89" length="4.58" shape="409.32,110.33 404.98,108.86"/>
    </edge>
    <edge id=":2386921346_2" function="internal">
        <lane id=":2386921346_2_0" index="0" allow="bicycle" speed="4.91" length="4.99" width="1.50" shape="409.59,109.52 408.06,108.85 407.11,108.05 406.73,107.13 406.93,106.07"/>
    </edge>
    <edge id=":2386921346_3" function="internal">
        <lane id=":2386921346_3_0" index="0" allow="bicycle" speed="5.56" length="6.13" width="1.50" shape="408.31,106.66 405.94,112.32"/>
    </edge>
    <edge id=":2386921346_4" function="internal">
        <lane id=":2386921346_4_0" index="0" allow="bicycle" speed="5.00" length="5.15" width="1.50" shape="408.31,106.66 407.48,108.24 406.61,109.26 405.68,109.74 404.70,109.67"/>
    </edge>
    <edge id=":2386921346_5" function="internal">
        <lane id=":2386921346_5_0" index="0" allow="bicycle" speed="2.50" length="2.19" width="1.50" shape="408.31,106.66 407.74,107.03 407.32,107.05 407.05,106.73 406.93,106.07"/>
    </edge>
    <edge id=":2386921346_6" function="internal">
        <lane id=":2386921346_6_0" index="0" allow="bicycle" speed="3.45" length="2.43" width="1.50" shape="404.55,111.76 404.86,111.09 405.12,110.49 405.13,110.00 404.70,109.67"/>
    </edge>
    <edge id=":2386921346_7" function="internal">
        <lane id=":2386921346_7_0" index="0" allow="bicycle" speed="5.56" length="6.17" width="1.50" shape="404.55,111.76 406.93,106.07"/>
    </edge>
    <edge id=":2386921346_8" function="internal">
        <lane id=":2386921346_8_0" index="0" allow="bicycle" speed="2.50" length="2.19" width="1.50" shape="404.55,111.76 405.11,111.38 405.53,111.35 405.80,111.66 405.94,112.32"/>
    </edge>
    <edge id=":266640125_0" function="internal">
        <lane id=":266640125_0_0" index="0" disallow="tram rail_urban rail rail_electric rail_fast ship container cable_car subway aircraft wheelchair scooter drone" speed="13.51" length="7.48" shape="389.36,87.05 390.64,88.80 391.82,89.75 393.22,90.46 395.20,91.48"/>
    </edge>
    <edge id=":266640125_1" function="internal">
        <lane id=":266640125_1_0" index="0" disallow="tram rail_urban rail rail_electric rail_fast ship container cable_car subway aircraft wheelchair scooter drone" speed="14.01" length="7.53" shape="389.36,87.05 390.50,88.96 391.13,90.37 391.45,91.88 391.65,94.09"/>
    </edge>
    <edge id=":266640126_0" function="internal">
        <lane id=":266640126_0_0" index="0" disallow="tram rail_urban rail rail_electric rail_fast ship container cable_car subway aircraft wheelchair scooter drone" speed="13.89" length="3.67" shape="405.82,96.77 409.18,98.26"/>
    </edge>
    <edge id=":266640350_0" function="internal">
        <lane id=":266640350_0_0" index="0" disallow="tram rail_urban rail rail_electric rail_fast ship container cable_car subway aircraft wheelchair scooter drone" speed="13.89" length="3.94" shape="404.79,108.80 403.68,108.44 402.91,108.27 402.11,108.15 400.96,107.97"/>
    </edge>
    <edge id=":266640351_0" function="internal">
        <lane id=":266640351_0_0" index="0" disallow="tram rail_urban rail rail_electric rail_fast ship container cable_car subway aircraft wheelchair scooter drone" speed="18.05" length="8.23" shape="390.83,107.58 388.39,107.69 386.69,107.72 385.05,107.97 382.75,108.74"/>
    </edge>
    <edge id=":266640351_1" function="internal">
        <lane id=":266640351_1_0" index="0" disallow="tram rail_urban rail rail_electric rail_fast ship container cable_car subway aircraft wheelchair scooter drone" speed="11.87" length="8.29" shape="388.98,103.60 387.58,105.60 386.42,106.86 384.99,107.78 382.75,108.74"/>
    </edge>
    <edge id=":266640564_0" function="internal">
        <lane id=":266640564_0_0" index="0" disallow="tram rail_urban rail rail_electric rail_fast ship container cable_car subway aircraft wheelchair scooter drone" speed="9.18" length="5.01" shape="358.68,74.28 358.16,72.89 357.72,71.94 357.07,71.15 355.91,70.27"/>
    </edge>
    <edge id=":266640564_1" function="internal">
        <lane id=":266640564_1_0" index="0" disallow="tram rail_urban rail rail_electric rail_fast ship container cable_car subway aircraft wheelchair scooter drone" speed="4.71" length="2.50" shape="358.68,74.28 358.08,72.05 358.12,71.87"/>
    </edge>
    <edge id=":266640564_4" function="internal">
        <lane id=":266640564_4_0" index="0" disallow="tram rail_urban rail rail_electric rail_fast ship container cable_car subway aircraft wheelchair scooter drone" speed="4.71" length="4.57" shape="358.12,71.87 358.38,70.87 359.60,70.73 361.72,71.64"/>
    </edge>
    <edge id=":266640564_2" function="internal">
        <lane id=":266640564_2_0" index="0" disallow="tram rail_urban rail rail_electric rail_fast ship container cable_car subway aircraft wheelchair scooter drone" speed="22.22" length="5.73" shape="357.71,67.62 358.98,68.73 359.67,69.71 360.38,70.66 361.72,71.64"/>
    </edge>
    <edge id=":266640564_3" function="internal">
        <lane id=":266640564_3_0" index="0" disallow="tram rail_urban rail rail_electric rail_fast ship container cable_car subway aircraft wheelchair scooter drone" speed="3.65" length="1.44" shape="357.71,67.62 358.26,68.96"/>
    </edge>
    <edge id=":266640564_5" function="internal">
        <lane id=":266640564_5_0" index="0" disallow="tram rail_urban rail rail_electric rail_fast ship container cable_car subway aircraft wheelchair scooter drone" speed="3.65" length="3.23" shape="358.26,68.96 358.14,69.84 357.36,70.28 355.91,70.27"/>
    </edge>
    <edge id=":266640570_0" function="internal">
        <lane id=":266640570_0_0" index="0" disallow="tram rail_urban rail rail_electric rail_fast ship container cable_car subway aircraft wheelchair scooter drone" speed="9.02" length="6.54" shape="372.72,109.69 370.87,109.43 369.58,109.69 368.35,110.36 366.67,111.35"/>
    </edge>
    <edge id=":266640570_1" function="internal">
        <lane id=":266640570_1_0" index="0" disallow="tram rail_urban rail rail_electric rail_fast ship container cable_car subway aircraft wheelchair scooter drone" speed="12.73" length="4.93" shape="372.72,109.69 371.28,109.39 370.29,109.16 369.37,108.76 368.19,107.93"/>
    </edge>
    <edge id=":266640571_0" function="internal">
        <lane id=":266640571_0_0" index="0" disallow="tram rail_urban rail rail_electric rail_fast ship container cable_car subway aircraft wheelchair scooter drone" speed="11.96" length="8.82" shape="368.03,107.81 365.90,106.64 364.14,106.63 362.21,107.06 359.56,107.24"/>
        <lane id=":266640571_0_1" index="1" disallow="tram rail_urban rail rail_electric rail_fast ship container cable_car subway aircraft wheelchair scooter drone" speed="12.31" length="9.37" shape="368.03,107.81 365.87,106.07 364.25,104.96 362.45,104.34 359.73,104.05"/>
    </edge>
    <edge id=":266640571_2" function="internal">
        <lane id=":266640571_2_0" index="0" disallow="tram rail_urban rail rail_electric rail_fast ship container cable_car subway aircraft wheelchair scooter drone" speed="11.82" length="10.12" shape="368.03,107.81 365.64,105.99 364.03,104.59 362.92,102.86 362.06,100.07"/>
    </edge>
    <edge id=":267210543_0" function="internal">
        <lane id=":267210543_0_0" index="0" disallow="tram rail_urban rail rail_electric rail_fast ship container cable_car subway aircraft wheelchair scooter drone" speed="3.65" length="4.67" shape="456.10,401.24 455.74,402.63 455.12,403.28 454.23,403.17 453.08,402.31"/>
    </edge>
    <edge id=":267210544_0" function="internal">
        <lane id=":267210544_0_0" index="0" disallow="tram rail_urban rail rail_electric rail_fast ship container cable_car subway aircraft wheelchair scooter drone" speed="9.52" length="8.43" shape="349.42,110.64 347.58,108.81 345.80,107.49 344.07,106.67 342.39,106.35"/>
    </edge>
    <edge id=":267210544_1" function="internal">
        <lane id=":267210544_1_0" index="0" disallow="tram rail_urban rail rail_electric rail_fast ship container cable_car subway aircraft wheelchair scooter drone" speed="13.89" length="8.90" shape="351.25,106.80 342.39,106.35"/>
        <lane id=":267210544_1_1" index="1" disallow="tram rail_urban rail rail_electric rail_fast ship container cable_car subway aircraft wheelchair scooter drone" speed="13.89" length="8.90" shape="351.42,103.61 342.52,103.16"/>
    </edge>
    <edge id=":483243385_0" function="internal">
        <lane id=":483243385_0_0" index="0" allow="bicycle" speed="6.22" length="6.41" width="1.50" shape="355.74,120.86 355.19,119.13 354.32,117.85 353.11,117.03 351.58,116.65"/>
    </edge>
    <edge id=":483243385_1" function="internal">
        <lane id=":483243385_1_0" index="0" disallow="tram rail_urban rail rail_electric rail_fast ship container cable_car subway aircraft wheelchair scooter drone" speed="13.12" length="8.43" shape="356.57,120.70 355.94,118.34 355.12,116.85 353.92,115.55 352.19,113.73"/>
    </edge>
    <edge id=":483243385_2" function="internal">
        <lane id=":483243385_2_0" index="0" allow="bicycle" speed="5.23" length="8.59" width="1.50" shape="357.41,120.54 357.90,118.70 359.63,117.14 361.84,116.29 363.81,116.58"/>
    </edge>
    <edge id=":483243385_3" function="internal">
        <lane id=":483243385_3_0" index="0" disallow="tram rail_urban rail rail_electric rail_fast ship container cable_car subway aircraft wheelchair scooter drone" speed="3.65" length="4.67" shape="356.57,120.70 357.13,119.37 357.84,118.82 358.70,119.06 359.71,120.09"/>
    </edge>
    <edge id=":483243385_4" function="internal">
        <lane id=":483243385_4_0" index="0" allow="bicycle" speed="4.09" length="5.48" width="1.50" shape="363.59,118.22 361.96,117.42 360.91,117.44 360.44,118.28 360.55,119.93"/>
    </edge>
    <edge id=":483243385_5" function="internal">
        <lane id=":483243385_5_0" index="0" allow="bicycle" speed="5.56" length="12.31" width="1.50" shape="363.59,118.22 360.63,116.92 357.86,116.61 354.96,116.71 351.58,116.65"/>
    </edge>
    <edge id=":483243385_6" function="internal">
        <lane id=":483243385_6_0" index="0" allow="bicycle" speed="9.72" length="12.88" width="1.50" shape="363.59,118.22 360.39,117.01 357.23,116.66 354.25,116.11 351.56,114.30"/>
    </edge>
    <edge id=":483243385_7" function="internal">
        <lane id=":483243385_7_0" index="0" allow="bicycle" speed="2.58" length="2.41" width="1.50" shape="363.59,118.22 363.03,117.73 362.88,117.29 363.14,116.91 363.81,116.58"/>
    </edge>
    <edge id=":483243385_8" function="internal">
        <lane id=":483243385_8_0" index="0" allow="bicycle" speed="3.83" length="3.40" width="1.50" shape="363.43,114.08 362.73,114.63 362.55,115.23 362.91,115.88 363.81,116.58"/>
    </edge>
    <edge id=":483243385_9" function="internal">
        <lane id=":483243385_9_0" index="0" disallow="tram rail_urban rail rail_electric rail_fast ship container cable_car subway aircraft wheelchair scooter drone" speed="6.99" length="8.12" shape="363.03,113.33 361.25,114.61 360.10,116.16 359.59,117.98 359.71,120.09"/>
    </edge>
    <edge id=":483243385_10" function="internal">
        <lane id=":483243385_10_0" index="0" allow="bicycle" speed="9.72" length="12.36" width="1.50" shape="363.43,114.08 360.43,115.55 357.72,116.42 354.91,116.77 351.58,116.65"/>
    </edge>
    <edge id=":483243385_11" function="internal">
        <lane id=":483243385_11_0" index="0" disallow="tram rail_urban rail rail_electric rail_fast ship container cable_car subway aircraft wheelchair scooter drone" speed="8.01" length="11.69" shape="363.03,113.33 359.53,114.89 356.55,115.48 354.11,115.09 352.19,113.73"/>
    </edge>
    <edge id=":483243385_12" function="internal">
        <lane id=":483243385_12_0" index="0" allow="bicycle" speed="2.26" length="1.17" width="1.50" shape="351.89,115.18 352.05,115.14 352.05,114.98 351.89,114.70 351.56,114.30"/>
    </edge>
    <edge id=":483243385_13" function="internal">
        <lane id=":483243385_13_0" index="0" allow="bicycle" speed="5.56" length="12.20" width="1.50" shape="351.89,115.18 355.25,115.21 358.12,115.05 360.85,115.31 363.81,116.58"/>
    </edge>
    <edge id=":483243385_14" function="internal">
        <lane id=":483243385_14_0" index="0" allow="bicycle" speed="7.64" length="10.54" width="1.50" shape="351.89,115.18 355.38,115.73 357.99,116.71 359.71,118.10 360.55,119.93"/>
    </edge>
    <edge id=":483243385_15" function="internal">
        <lane id=":483243385_15_0" index="0" allow="bicycle" speed="2.51" length="2.21" width="1.50" shape="351.89,115.18 352.36,115.66 352.47,116.07 352.21,116.40 351.58,116.65"/>
    </edge>
    <edge id=":503845766_0" function="internal">
        <lane id=":503845766_0_0" index="0" disallow="tram rail_urban rail rail_electric rail_fast ship container cable_car subway aircraft wheelchair scooter drone" speed="3.65" length="4.67" shape="304.88,35.56 304.34,34.22 304.46,33.33 305.24,32.90 306.68,32.91"/>
    </edge>
    <edge id=":7257823881_0" function="internal">
        <lane id=":7257823881_0_0" index="0" disallow="tram rail_urban rail rail_electric rail_fast ship container cable_car subway aircraft wheelchair scooter drone" speed="13.89" length="4.28" shape="342.19,106.35 340.97,106.31 340.13,106.31 339.30,106.36 338.08,106.44"/>
        <lane id=":7257823881_0_1" index="1" disallow="tram rail_urban rail rail_electric rail_fast ship container cable_car subway aircraft wheelchair scooter drone" speed="13.89" length="4.28" shape="342.32,103.15 341.00,103.11 340.09,103.11 339.19,103.16 337.87,103.25"/>
    </edge>
    <edge id=":7931082281_0" function="internal">
        <lane id=":7931082281_0_0" index="0" disallow="tram rail_urban rail rail_electric rail_fast ship container cable_car subway aircraft wheelchair scooter drone" speed="13.89" length="0.30" shape="667.02,129.81 667.32,129.84"/>
    </edge>
    <edge id=":9139317857_0" function="internal">
        <lane id=":9139317857_0_0" index="0" allow="bicycle" speed="5.56" length="5.05" width="1.50" shape="343.71,116.83 338.66,116.96"/>
    </edge>
    <edge id=":9139317857_1" function="internal">
        <lane id=":9139317857_1_0" index="0" allow="bicycle" speed="2.50" length="1.10" width="1.50" shape="343.71,116.83 343.14,116.47 342.94,116.10"/>
    </edge>
    <edge id=":9139317857_4" function="internal">
        <lane id=":9139317857_4_0" index="0" allow="bicycle" speed="2.50" length="1.10" width="1.50" shape="342.94,116.10 343.12,115.72 343.67,115.33"/>
    </edge>
    <edge id=":9139317857_2" function="internal">
        <lane id=":9139317857_2_0" index="0" allow="bicycle" speed="5.56" length="5.05" width="1.50" shape="338.62,115.46 343.67,115.33"/>
    </edge>
    <edge id=":9139317857_3" function="internal">
        <lane id=":9139317857_3_0" index="0" allow="bicycle" speed="2.50" length="1.10" width="1.50" shape="338.62,115.46 339.19,115.82 339.39,116.19"/>
    </edge>
    <edge id=":9139317857_5" function="internal">
        <lane id=":9139317857_5_0" index="0" allow="bicycle" speed="2.50" length="1.10" width="1.50" shape="339.39,116.19 339.21,116.57 338.66,116.96"/>
    </edge>

    <edge id="-166991403" from="266640564" to="503845766" priority="10" type="highway.tertiary">
        <lane id="-166991403_0" index="0" disallow="tram rail_urban rail rail_electric rail_fast ship container cable_car subway aircraft wheelchair scooter drone" speed="22.22" length="61.72" shape="355.91,70.27 304.88,35.56"/>
    </edge>
    <edge id="-230164387#0" from="2386921344" to="2382494757" priority="1" type="highway.cycleway" shape="410.83,98.94 412.68,94.96 413.19,91.62 399.33,82.32 388.42,74.34 380.49,70.37 371.74,66.29 366.56,62.62 363.08,59.48 356.16,53.51 311.93,24.11 277.36,0.76 275.12,0.00 272.62,1.07 269.35,4.45 265.74,9.59 264.12,12.47 263.65,17.88">
        <lane id="-230164387#0_0" index="0" allow="bicycle" speed="5.56" length="190.27" width="1.50" shape="411.53,95.65 411.95,94.74 412.38,91.98 398.90,82.94 388.03,74.99 380.17,71.05 371.36,66.95 366.09,63.21 362.58,60.04 355.71,54.11 311.51,24.73 277.03,1.43 275.16,0.80 273.06,1.70 269.93,4.93 266.38,9.99 264.86,12.70 264.40,17.94"/>
    </edge>
    <edge id="-230164387#1" from="2386921346" to="2386921344" priority="1" type="highway.cycleway">
        <lane id="-230164387#1_0" index="0" allow="bicycle" speed="5.56" length="4.97" width="1.50" shape="406.93,106.07 408.90,101.51"/>
    </edge>
    <edge id="-230164387#2" from="1295199067" to="2386921346" priority="1" type="highway.cycleway">
        <lane id="-230164387#2_0" index="0" allow="bicycle" speed="5.56" length="0.25" width="1.50" shape="404.46,112.00 404.55,111.76"/>
    </edge>
    <edge id="-24579152" from="483243385" to="267210543" priority="3" type="highway.residential" shape="357.36,116.40 359.21,125.86 434.58,345.17 435.98,349.22 437.60,353.80 454.59,401.77">
        <lane id="-24579152_0" index="0" disallow="tram rail_urban rail rail_electric rail_fast ship container cable_car subway aircraft wheelchair scooter drone" speed="13.89" length="297.26" shape="359.71,120.09 360.76,125.44 436.10,344.65 437.49,348.69 439.11,353.27 456.10,401.24"/>
    </edge>
    <edge id="-257873386#0" from="9139317857" to="1354991900" priority="1" type="highway.cycleway" shape="341.17,116.14 292.37,117.34 288.10,117.87 283.24,118.85 279.52,120.51 273.54,124.28 238.13,135.45 217.86,141.61 214.98,143.16 211.47,144.13 204.53,146.83 111.56,202.94 59.01,236.01 30.77,253.78 24.07,259.18 17.41,266.79 12.63,275.27">
        <lane id="-257873386#0_0" index="0" allow="bicycle" speed="5.56" length="371.09" width="1.50" shape="338.66,116.96 292.42,118.09 288.22,118.61 283.47,119.57 279.87,121.18 273.86,124.97 238.35,136.17 218.15,142.31 215.26,143.86 211.71,144.84 204.86,147.51 111.95,203.57 59.41,236.64 31.21,254.39 24.60,259.72 18.02,267.22 13.28,275.64"/>
    </edge>
    <edge id="-257873386#1" from="483243385" to="9139317857" priority="1" type="highway.cycleway" shape="357.36,116.40 351.45,115.89 341.17,116.14">
        <lane id="-257873386#1_0" index="0" allow="bicycle" speed="5.56" length="7.87" width="1.50" shape="351.58,116.65 351.43,116.64 343.71,116.83"/>
    </edge>
    <edge id="-257873386#2" from="1295199067" to="483243385" priority="1" type="highway.cycleway" shape="405.19,112.18 401.95,119.87 400.15,121.04 366.22,118.97 363.11,117.03 357.36,116.40">
        <lane id="-257873386#2_0" index="0" allow="bicycle" speed="5.56" length="48.31" width="1.50" shape="405.83,112.60 402.55,120.38 400.35,121.80 365.98,119.71 363.59,118.22"/>
    </edge>
    <edge id="114314106" from="483243385" to="267210544" priority="4" type="highway.unclassified" spreadType="center" shape="357.36,116.40 352.79,114.41 347.53,108.53 344.20,104.82">
        <lane id="114314106_0" index="0" disallow="tram rail_urban rail rail_electric rail_fast ship container cable_car subway aircraft wheelchair scooter drone" speed="13.89" length="4.15" shape="352.19,113.73 349.42,110.64"/>
    </edge>
    <edge id="114314118" from="266640570" to="483243385" priority="4" type="highway.unclassified" spreadType="center">
        <lane id="114314118_0" index="0" disallow="tram rail_urban rail rail_electric rail_fast ship container cable_car subway aircraft wheelchair scooter drone" speed="13.89" length="4.14" shape="366.67,111.35 363.03,113.33"/>
    </edge>
    <edge id="166991397#0" from="266640351" to="266640570" priority="10" type="highway.tertiary" spreadType="center" shape="384.39,108.09 379.50,110.02 375.22,110.28 370.64,109.20">
        <lane id="166991397#0_0" index="0" disallow="tram rail_urban rail rail_electric rail_fast ship container cable_car subway aircraft wheelchair scooter drone" speed="22.22" length="10.35" shape="382.75,108.74 379.50,110.02 375.22,110.28 372.72,109.69"/>
    </edge>
    <edge id="166991397#1" from="266640570" to="266640571" priority="10" type="highway.tertiary" spreadType="center" shape="370.64,109.20 368.27,107.99 365.69,105.97">
        <lane id="166991397#1_0" index="0" disallow="tram rail_urban rail rail_electric rail_fast ship container cable_car subway aircraft wheelchair scooter drone" speed="22.22" length="0.20" shape="368.19,107.93 368.03,107.81"/>
    </edge>
    <edge id="166991398#0" from="266642128" to="2386921346" priority="3" type="highway.residential" spreadType="center" shape="691.00,141.04 669.01,139.62 617.11,135.70 613.48,135.32 532.24,130.02 527.50,129.64 520.48,129.06 517.92,128.86 508.52,128.19 497.96,127.43 489.98,126.86 484.36,126.46 469.92,124.67 458.50,123.25 451.20,122.03 441.78,120.09 435.95,118.66 428.58,116.72 409.85,110.51 406.34,109.33">
        <lane id="166991398#0_0" index="0" disallow="tram rail_urban rail rail_electric rail_fast ship container cable_car subway aircraft wheelchair scooter drone" speed="13.89" length="284.15" shape="691.00,141.04 669.01,139.62 617.11,135.70 613.48,135.32 532.24,130.02 527.50,129.64 520.48,129.06 517.92,128.86 508.52,128.19 497.96,127.43 489.98,126.86 484.36,126.46 469.92,124.67 458.50,123.25 451.20,122.03 441.78,120.09 435.95,118.66 428.58,116.72 409.85,110.51 409.32,110.33"/>
    </edge>
    <edge id="166991398#1" from="2386921346" to="266640350" priority="3" type="highway.residential" spreadType="center">
        <lane id="166991398#1_0" index="0" disallow="tram rail_urban rail rail_electric rail_fast ship container cable_car subway aircraft wheelchair scooter drone" speed="13.89" length="0.20" shape="404.98,108.86 404.79,108.80"/>
    </edge>
    <edge id="166991398#2" from="266640350" to="266640351" priority="3" type="highway.residential" spreadType="center" shape="403.92,108.49 396.24,107.15 389.90,107.65 384.39,108.09">
        <lane id="166991398#2_0" index="0" disallow="tram rail_urban rail rail_electric rail_fast ship container cable_car subway aircraft wheelchair scooter drone" speed="13.89" length="10.21" shape="400.96,107.97 396.24,107.15 390.83,107.58"/>
    </edge>
    <edge id="166991399" from="266640571" to="266640564" priority="10" type="highway.tertiary" spreadType="center" shape="365.69,105.97 363.92,103.91 362.26,100.94 361.11,96.06 361.33,92.24 362.04,84.43 361.57,81.82 356.57,68.77">
        <lane id="166991399_0" index="0" disallow="tram rail_urban rail rail_electric rail_fast ship container cable_car subway aircraft wheelchair scooter drone" speed="22.22" length="26.51" shape="362.06,100.07 361.11,96.06 361.33,92.24 362.04,84.43 361.57,81.82 358.68,74.28"/>
    </edge>
    <edge id="166991401" from="266640125" to="266640351" priority="10" type="highway.tertiary" spreadType="center" shape="390.36,88.67 391.52,92.43 391.75,95.37 391.24,98.93 390.01,102.09 387.95,105.11 384.39,108.09">
        <lane id="166991401_0" index="0" disallow="tram rail_urban rail rail_electric rail_fast ship container cable_car subway aircraft wheelchair scooter drone" speed="22.22" length="10.09" shape="391.65,94.09 391.75,95.37 391.24,98.93 390.01,102.09 388.98,103.60"/>
    </edge>
    <edge id="166991403" from="503845766" to="266640564" priority="10" type="highway.tertiary">
        <lane id="166991403_0" index="0" disallow="tram rail_urban rail rail_electric rail_fast ship container cable_car subway aircraft wheelchair scooter drone" speed="22.22" length="61.72" shape="306.68,32.91 357.71,67.62"/>
    </edge>
    <edge id="22973520#0" from="266640571" to="267210544" priority="10" type="highway.tertiary" spreadType="center">
        <lane id="22973520#0_0" index="0" disallow="tram rail_urban rail rail_electric rail_fast ship container cable_car subway aircraft wheelchair scooter drone" speed="13.89" length="8.32" shape="359.56,107.24 351.25,106.80"/>
        <lane id="22973520#0_1" index="1" disallow="tram rail_urban rail rail_electric rail_fast ship container cable_car subway aircraft wheelchair scooter drone" speed="13.89" length="8.32" shape="359.73,104.05 351.42,103.61"/>
    </edge>