<?xml version="1.0" encoding="UTF-8"?>

<!-- generated on 2024-09-03 01:38:48 by Eclipse SUMO netconvert Version 1.20.0
<configuration xmlns:xsi="http://www.w3.org/2001/XMLSchema-instance" xsi:noNamespaceSchemaLocation="http://sumo.dlr.de/xsd/netconvertConfiguration.xsd">

    <input>
        <osm-files value="train_files/intersection/hard/osm_files/map(85).osm"/>
    </input>

    <output>
        <output-file value="train_files/intersection/hard/outputs/map(85)_dict/map(85)/map(85).net.xml"/>
    </output>

    <projection>
        <proj.utm value="true"/>
    </projection>

    <building_defaults>
        <default.junctions.keep-clear value="false"/>
    </building_defaults>

</configuration>
-->

<net version="1.20" junctionCornerDetail="5" limitTurnSpeed="5.50" xmlns:xsi="http://www.w3.org/2001/XMLSchema-instance" xsi:noNamespaceSchemaLocation="http://sumo.dlr.de/xsd/net_file.xsd">

    <location netOffset="-412155.31,-5791352.30" convBoundary="0.00,0.00,378.99,277.99" origBoundary="7.652849,52.265588,7.718255,52.283467" projParameter="+proj=utm +zone=32 +ellps=WGS84 +datum=WGS84 +units=m +no_defs"/>

    <type id="highway.cycleway" priority="1" numLanes="1" speed="5.56" allow="bicycle" oneway="0" width="2.00"/>
    <type id="highway.footway" priority="1" numLanes="1" speed="2.78" allow="pedestrian" oneway="1" width="2.00"/>
    <type id="highway.path" priority="1" numLanes="1" speed="5.56" allow="pedestrian bicycle" oneway="0" width="2.00"/>
    <type id="highway.residential" priority="3" numLanes="1" speed="13.89" disallow="tram rail_urban rail rail_electric rail_fast ship container cable_car subway aircraft wheelchair scooter drone" oneway="0"/>
    <type id="highway.secondary" priority="11" numLanes="1" speed="27.78" disallow="tram rail_urban rail rail_electric rail_fast ship container cable_car subway aircraft wheelchair scooter drone" oneway="0"/>
    <type id="highway.secondary_link" priority="6" numLanes="1" speed="22.22" disallow="tram rail_urban rail rail_electric rail_fast ship container cable_car subway aircraft wheelchair scooter drone" oneway="0"/>
    <type id="highway.service" priority="1" numLanes="1" speed="5.56" allow="pedestrian delivery bicycle" oneway="0"/>
    <type id="highway.track" priority="1" numLanes="1" speed="5.56" allow="pedestrian motorcycle moped bicycle" oneway="0"/>

    <edge id=":21282572_0" function="internal">
        <lane id=":21282572_0_0" index="0" disallow="tram rail_urban rail rail_electric rail_fast ship container cable_car subway aircraft wheelchair scooter drone" speed="13.89" length="19.64" shape="252.50,143.60 251.05,137.29 250.56,132.18 250.30,127.94 249.57,124.23"/>
    </edge>
    <edge id=":21282572_1" function="internal">
        <lane id=":21282572_1_0" index="0" disallow="tram rail_urban rail rail_electric rail_fast ship container cable_car subway aircraft wheelchair scooter drone" speed="10.90" length="20.54" shape="255.55,142.66 254.82,137.72 255.79,133.12 258.45,128.88 262.81,124.99"/>
    </edge>
    <edge id=":21282572_2" function="internal">
        <lane id=":21282572_2_0" index="0" disallow="tram rail_urban rail rail_electric rail_fast ship container cable_car subway aircraft wheelchair scooter drone" speed="3.65" length="4.67" shape="255.55,142.66 255.96,141.28 256.61,140.66 257.49,140.81 258.61,141.72"/>
    </edge>
    <edge id=":21282572_3" function="internal">
        <lane id=":21282572_3_0" index="0" disallow="tram rail_urban rail rail_electric rail_fast ship container cable_car subway aircraft wheelchair scooter drone" speed="9.28" length="14.67" shape="266.46,130.24 262.47,133.46 259.83,136.44 258.55,139.20 258.61,141.72"/>
    </edge>
    <edge id=":21282572_4" function="internal">
        <lane id=":21282572_4_0" index="0" disallow="tram rail_urban rail rail_electric rail_fast ship container cable_car subway aircraft wheelchair scooter drone" speed="20.83" length="22.21" shape="266.46,130.24 260.51,133.85 255.04,136.33 250.33,138.26 246.66,140.22"/>
    </edge>
    <edge id=":21282572_5" function="internal">
        <lane id=":21282572_5_0" index="0" disallow="tram rail_urban rail rail_electric rail_fast ship container cable_car subway aircraft wheelchair scooter drone" speed="8.36" length="8.28" shape="264.63,127.62 259.50,130.40 257.07,130.61"/>
    </edge>
    <edge id=":21282572_6" function="internal">
        <lane id=":21282572_6_0" index="0" disallow="tram rail_urban rail rail_electric rail_fast ship container cable_car subway aircraft wheelchair scooter drone" speed="3.65" length="1.44" shape="264.63,127.62 263.19,127.64"/>
    </edge>
    <edge id=":21282572_14" function="internal">
        <lane id=":21282572_14_0" index="0" disallow="tram rail_urban rail rail_electric rail_fast ship container cable_car subway aircraft wheelchair scooter drone" speed="8.36" length="10.77" shape="257.07,130.61 255.28,130.76 251.97,128.71 249.57,124.23"/>
    </edge>
    <edge id=":21282572_15" function="internal">
        <lane id=":21282572_15_0" index="0" disallow="tram rail_urban rail rail_electric rail_fast ship container cable_car subway aircraft wheelchair scooter drone" speed="3.65" length="3.23" shape="263.19,127.64 262.41,127.22 262.28,126.33 262.81,124.99"/>
    </edge>
    <edge id=":21282572_7" function="internal">
        <lane id=":21282572_7_0" index="0" disallow="tram rail_urban rail rail_electric rail_fast ship container cable_car subway aircraft wheelchair scooter drone" speed="13.89" length="19.84" shape="255.63,122.16 257.23,128.50 257.77,133.66 257.97,137.96 258.61,141.72"/>
    </edge>
    <edge id=":21282572_8" function="internal">
        <lane id=":21282572_8_0" index="0" disallow="tram rail_urban rail rail_electric rail_fast ship container cable_car subway aircraft wheelchair scooter drone" speed="10.46" length="19.50" shape="252.60,123.20 253.55,128.13 252.88,132.61 250.58,136.64 246.66,140.22"/>
    </edge>
    <edge id=":21282572_9" function="internal">
        <lane id=":21282572_9_0" index="0" disallow="tram rail_urban rail rail_electric rail_fast ship container cable_car subway aircraft wheelchair scooter drone" speed="3.65" length="4.68" shape="252.60,123.20 252.23,124.59 251.60,125.23 250.72,125.11 249.57,124.23"/>
    </edge>
    <edge id=":21282572_10" function="internal">
        <lane id=":21282572_10_0" index="0" disallow="tram rail_urban rail rail_electric rail_fast ship container cable_car subway aircraft wheelchair scooter drone" speed="8.76" length="13.46" shape="242.97,135.00 246.49,132.13 248.76,129.38 249.79,126.75 249.57,124.23"/>
    </edge>
    <edge id=":21282572_11" function="internal">
        <lane id=":21282572_11_0" index="0" disallow="tram rail_urban rail rail_electric rail_fast ship container cable_car subway aircraft wheelchair scooter drone" speed="20.83" length="22.26" shape="242.97,135.00 248.94,131.41 254.43,128.92 259.14,126.97 262.81,124.99"/>
    </edge>
    <edge id=":21282572_12" function="internal">
        <lane id=":21282572_12_0" index="0" disallow="tram rail_urban rail rail_electric rail_fast ship container cable_car subway aircraft wheelchair scooter drone" speed="8.07" length="7.05" shape="244.82,137.61 249.54,135.14 251.27,135.08"/>
    </edge>
    <edge id=":21282572_13" function="internal">
        <lane id=":21282572_13_0" index="0" disallow="tram rail_urban rail rail_electric rail_fast ship container cable_car subway aircraft wheelchair scooter drone" speed="3.65" length="1.44" shape="244.82,137.61 246.26,137.57"/>
    </edge>
    <edge id=":21282572_16" function="internal">
        <lane id=":21282572_16_0" index="0" disallow="tram rail_urban rail rail_electric rail_fast ship container cable_car subway aircraft wheelchair scooter drone" speed="8.07" length="10.90" shape="251.27,135.08 253.41,135.00 256.44,137.20 258.61,141.72"/>
    </edge>
    <edge id=":21282572_17" function="internal">
        <lane id=":21282572_17_0" index="0" disallow="tram rail_urban rail rail_electric rail_fast ship container cable_car subway aircraft wheelchair scooter drone" speed="3.65" length="3.23" shape="246.26,137.57 247.05,137.99 247.18,138.87 246.66,140.22"/>
    </edge>
    <edge id=":21282952_0" function="internal">
        <lane id=":21282952_0_0" index="0" disallow="tram rail_urban rail rail_electric rail_fast ship container cable_car subway aircraft wheelchair scooter drone" speed="18.05" length="16.70" shape="260.51,179.73 259.02,174.62 257.07,170.97 254.91,168.05 252.74,165.16"/>
    </edge>
    <edge id=":21282952_1" function="internal">
        <lane id=":21282952_1_0" index="0" disallow="tram rail_urban rail rail_electric rail_fast ship container cable_car subway aircraft wheelchair scooter drone" speed="13.89" length="16.75" shape="260.51,179.73 257.05,163.35"/>
        <lane id=":21282952_1_1" index="1" disallow="tram rail_urban rail rail_electric rail_fast ship container cable_car subway aircraft wheelchair scooter drone" speed="13.89" length="16.75" shape="263.65,179.11 260.19,162.70"/>
    </edge>
    <edge id=":21282952_3" function="internal">
        <lane id=":21282952_3_0" index="0" disallow="tram rail_urban rail rail_electric rail_fast ship container cable_car subway aircraft wheelchair scooter drone" speed="3.65" length="1.44" shape="263.65,179.11 264.20,177.78"/>
    </edge>
    <edge id=":21282952_5" function="internal">
        <lane id=":21282952_5_0" index="0" disallow="tram rail_urban rail rail_electric rail_fast ship container cable_car subway aircraft wheelchair scooter drone" speed="3.65" length="3.23" shape="264.20,177.78 264.91,177.23 265.77,177.47 266.79,178.49"/>
    </edge>
    <edge id=":21282952_4" function="internal">
        <lane id=":21282952_4_0" index="0" disallow="tram rail_urban rail rail_electric rail_fast ship container cable_car subway aircraft wheelchair scooter drone" speed="13.89" length="16.80" shape="263.32,162.06 266.79,178.49"/>
    </edge>
    <edge id=":2132652605_0" function="internal">
        <lane id=":2132652605_0_0" index="0" allow="pedestrian delivery bicycle" speed="7.47" length="16.68" shape="270.16,195.61 270.32,200.11 268.65,202.81 265.15,203.72 259.84,202.83"/>
    </edge>
    <edge id=":2132652605_1" function="internal">
        <lane id=":2132652605_1_0" index="0" disallow="tram rail_urban rail rail_electric rail_fast ship container cable_car subway aircraft wheelchair scooter drone" speed="3.65" length="4.67" shape="270.16,195.61 269.61,196.94 268.90,197.49 268.04,197.25 267.02,196.23"/>
    </edge>
    <edge id=":2132652605_2" function="internal">
        <lane id=":2132652605_2_0" index="0" allow="pedestrian delivery bicycle" speed="4.70" length="5.72" shape="260.72,199.75 262.40,200.00 263.49,199.60 263.98,198.55 263.88,196.85"/>
        <lane id=":2132652605_2_1" index="1" allow="pedestrian delivery bicycle" speed="5.79" length="9.43" shape="260.72,199.75 263.90,200.33 266.00,199.94 267.05,198.57 267.02,196.23"/>
    </edge>
    <edge id=":2132652607_0" function="internal">
        <lane id=":2132652607_0_0" index="0" allow="pedestrian delivery bicycle" speed="5.56" length="5.97" shape="240.53,197.28 238.69,196.92 237.16,196.97 235.94,197.43 235.04,198.31"/>
    </edge>
    <edge id=":2132652607_1" function="internal">
        <lane id=":2132652607_1_0" index="0" allow="pedestrian delivery bicycle" speed="5.56" length="11.04" shape="240.53,197.28 237.70,196.01 236.13,194.17 235.80,191.78 236.74,188.82"/>
    </edge>
    <edge id=":2132652607_2" function="internal">
        <lane id=":2132652607_2_0" index="0" allow="pedestrian delivery bicycle" speed="3.65" length="4.67" shape="240.53,197.28 239.59,196.18 239.43,195.30 240.04,194.64 241.41,194.21"/>
    </edge>
    <edge id=":2132652607_3" function="internal">
        <lane id=":2132652607_3_0" index="0" allow="pedestrian delivery bicycle" speed="4.88" length="5.21" shape="239.62,190.21 239.18,191.61 239.33,192.74 240.07,193.61 241.41,194.21"/>
    </edge>
    <edge id=":2132652607_4" function="internal">
        <lane id=":2132652607_4_0" index="0" allow="pedestrian delivery bicycle" speed="5.56" length="9.33" shape="239.62,190.21 238.42,192.71 237.57,194.40 236.59,196.02 235.04,198.31"/>
    </edge>
    <edge id=":2132652607_5" function="internal">
        <lane id=":2132652607_5_0" index="0" allow="pedestrian delivery bicycle" speed="3.65" length="4.67" shape="239.62,190.21 238.38,190.94 237.48,190.96 236.94,190.25 236.74,188.82"/>
    </edge>
    <edge id=":2132652607_6" function="internal">
        <lane id=":2132652607_6_0" index="0" allow="pedestrian delivery bicycle" speed="5.56" length="8.83" shape="232.41,196.49 233.87,194.32 234.80,192.79 235.61,191.18 236.74,188.82"/>
    </edge>
    <edge id=":2132652607_7" function="internal">
        <lane id=":2132652607_7_0" index="0" allow="pedestrian delivery bicycle" speed="5.56" length="9.97" shape="232.41,196.49 234.02,194.82 236.06,193.89 238.53,193.68 241.41,194.21"/>
    </edge>
    <edge id=":2132652607_8" function="internal">
        <lane id=":2132652607_8_0" index="0" allow="pedestrian delivery bicycle" speed="3.65" length="4.67" shape="232.41,196.49 233.75,195.96 234.63,196.09 235.06,196.87 235.04,198.31"/>
    </edge>
    <edge id=":2132652610_0" function="internal">
        <lane id=":2132652610_0_0" index="0" allow="pedestrian delivery bicycle" speed="3.65" length="4.67" shape="194.33,210.91 193.40,209.82 193.23,208.94 193.84,208.28 195.21,207.84"/>
    </edge>
    <edge id=":2132652611_0" function="internal">
        <lane id=":2132652611_0_0" index="0" allow="pedestrian delivery bicycle" speed="5.56" length="3.52" shape="239.06,183.99 239.70,183.25 240.43,183.00 241.17,182.75 241.82,182.01"/>
    </edge>
    <edge id=":2132652611_1" function="internal">
        <lane id=":2132652611_1_0" index="0" allow="pedestrian delivery bicycle" speed="3.65" length="4.67" shape="239.06,183.99 240.30,183.26 241.20,183.24 241.74,183.95 241.94,185.38"/>
    </edge>
    <edge id=":2132653882_0" function="internal">
        <lane id=":2132653882_0_0" index="0" disallow="tram rail_urban rail rail_electric rail_fast ship container cable_car subway aircraft wheelchair scooter drone" speed="13.89" length="7.75" shape="245.80,108.63 244.17,101.05"/>
    </edge>
    <edge id=":2132653882_1" function="internal">
        <lane id=":2132653882_1_0" index="0" disallow="tram rail_urban rail rail_electric rail_fast ship container cable_car subway aircraft wheelchair scooter drone" speed="9.40" length="7.65" shape="250.41,99.66 251.12,101.70 252.11,102.87 253.53,103.74 255.50,104.92"/>
    </edge>
    <edge id=":2132653882_2" function="internal">
        <lane id=":2132653882_2_0" index="0" disallow="tram rail_urban rail rail_electric rail_fast ship container cable_car subway aircraft wheelchair scooter drone" speed="13.89" length="7.77" shape="250.41,99.66 252.05,107.27"/>
        <lane id=":2132653882_2_1" index="1" disallow="tram rail_urban rail rail_electric rail_fast ship container cable_car subway aircraft wheelchair scooter drone" speed="13.89" length="7.77" shape="247.29,100.35 248.92,107.95"/>
    </edge>
    <edge id=":2132653882_4" function="internal">
        <lane id=":2132653882_4_0" index="0" disallow="tram rail_urban rail rail_electric rail_fast ship container cable_car subway aircraft wheelchair scooter drone" speed="3.65" length="1.44" shape="247.29,100.35 246.77,101.70"/>
    </edge>
    <edge id=":2132653882_5" function="internal">
        <lane id=":2132653882_5_0" index="0" disallow="tram rail_urban rail rail_electric rail_fast ship container cable_car subway aircraft wheelchair scooter drone" speed="3.65" length="3.23" shape="246.77,101.70 246.08,102.26 245.21,102.05 244.17,101.05"/>
    </edge>
    <edge id=":291889912_0" function="internal">
        <lane id=":291889912_0_0" index="0" disallow="tram rail_urban rail rail_electric rail_fast ship container cable_car subway aircraft wheelchair scooter drone" speed="13.89" length="8.61" shape="288.90,110.64 283.12,116.95"/>
        <lane id=":291889912_0_1" index="1" disallow="tram rail_urban rail rail_electric rail_fast ship container cable_car subway aircraft wheelchair scooter drone" speed="13.89" length="8.61" shape="286.63,108.39 280.77,114.78"/>
    </edge>
    <edge id=":291889912_2" function="internal">
        <lane id=":291889912_2_0" index="0" disallow="tram rail_urban rail rail_electric rail_fast ship container cable_car subway aircraft wheelchair scooter drone" speed="3.65" length="1.44" shape="286.63,108.39 285.21,108.68"/>
    </edge>
    <edge id=":291889912_6" function="internal">
        <lane id=":291889912_6_0" index="0" disallow="tram rail_urban rail rail_electric rail_fast ship container cable_car subway aircraft wheelchair scooter drone" speed="3.65" length="3.23" shape="285.21,108.68 284.36,108.40 284.08,107.55 284.35,106.14"/>
    </edge>
    <edge id=":291889912_3" function="internal">
        <lane id=":291889912_3_0" index="0" disallow="tram rail_urban rail rail_electric rail_fast ship container cable_car subway aircraft wheelchair scooter drone" speed="13.47" length="8.75" shape="276.40,109.25 278.96,108.73 280.80,108.43 282.42,107.75 284.35,106.14"/>
    </edge>
    <edge id=":291889912_4" function="internal">
        <lane id=":291889912_4_0" index="0" disallow="tram rail_urban rail rail_electric rail_fast ship container cable_car subway aircraft wheelchair scooter drone" speed="13.89" length="8.78" shape="278.41,112.60 284.35,106.14"/>
    </edge>
    <edge id=":291889912_5" function="internal">
        <lane id=":291889912_5_0" index="0" disallow="tram rail_urban rail rail_electric rail_fast ship container cable_car subway aircraft wheelchair scooter drone" speed="3.65" length="1.44" shape="278.41,112.60 279.82,112.27"/>
    </edge>
    <edge id=":291889912_7" function="internal">
        <lane id=":291889912_7_0" index="0" disallow="tram rail_urban rail rail_electric rail_fast ship container cable_car subway aircraft wheelchair scooter drone" speed="3.65" length="3.23" shape="279.82,112.27 280.68,112.51 280.99,113.35 280.77,114.78"/>
    </edge>
    <edge id=":3218813916_0" function="internal">
        <lane id=":3218813916_0_0" index="0" allow="pedestrian delivery bicycle" speed="5.56" length="0.30" shape="209.90,74.29 209.60,74.29"/>
    </edge>
    <edge id=":3218813916_1" function="internal">
        <lane id=":3218813916_1_0" index="0" allow="pedestrian delivery bicycle" speed="5.56" length="0.30" shape="209.64,71.09 209.94,71.09"/>
    </edge>
    <edge id=":3218813918_0" function="internal">
        <lane id=":3218813918_0_0" index="0" allow="pedestrian delivery bicycle" speed="5.56" length="10.86" shape="220.82,84.31 220.74,87.35 219.69,89.49 217.65,90.76 214.64,91.13"/>
    </edge>
    <edge id=":3218813918_1" function="internal">
        <lane id=":3218813918_1_0" index="0" allow="pedestrian delivery bicycle" speed="3.65" length="4.67" shape="220.82,84.31 220.17,85.60 219.42,86.09 218.58,85.78 217.64,84.69"/>
    </edge>
    <edge id=":3218813918_2" function="internal">
        <lane id=":3218813918_2_0" index="0" allow="pedestrian delivery bicycle" speed="4.91" length="5.17" shape="214.70,87.93 216.13,87.75 217.10,87.15 217.61,86.13 217.64,84.69"/>
    </edge>
    <edge id=":3218813918_3" function="internal">
        <lane id=":3218813918_3_0" index="0" allow="pedestrian delivery bicycle" speed="3.65" length="4.67" shape="214.70,87.93 215.89,88.76 216.27,89.56 215.85,90.36 214.64,91.13"/>
    </edge>
    <edge id=":346357885_0" function="internal">
        <lane id=":346357885_0_0" index="0" allow="pedestrian bicycle" speed="2.50" length="2.19" width="1.50" shape="379.48,185.69 379.67,186.34 379.57,186.75 379.18,186.91 378.51,186.84"/>
    </edge>
    <edge id=":354672835_0" function="internal">
        <lane id=":354672835_0_0" index="0" disallow="tram rail_urban rail rail_electric rail_fast ship container cable_car subway aircraft wheelchair scooter drone" speed="3.65" length="4.67" shape="360.22,120.18 361.62,120.51 362.28,121.12 362.18,122.01 361.34,123.18"/>
    </edge>
    <edge id=":354673727_0" function="internal">
        <lane id=":354673727_0_0" index="0" allow="pedestrian bicycle" speed="5.56" length="4.18" width="1.50" shape="275.22,134.79 274.21,134.68 273.23,134.84 272.30,135.28 271.41,135.99"/>
    </edge>
    <edge id=":354673727_1" function="internal">
        <lane id=":354673727_1_0" index="0" allow="pedestrian bicycle" speed="5.56" length="4.96" width="2.00" shape="275.22,134.79 273.94,134.36 272.86,133.76 271.99,132.96 271.31,131.99"/>
    </edge>
    <edge id=":354673727_2" function="internal">
        <lane id=":354673727_2_0" index="0" allow="pedestrian bicycle" speed="2.89" length="2.92" width="2.00" shape="275.22,134.79 274.61,134.13 274.49,133.58 274.85,133.16 275.69,132.85"/>
    </edge>
    <edge id=":354673727_3" function="internal">
        <lane id=":354673727_3_0" index="0" allow="pedestrian bicycle" speed="5.56" length="3.27" width="2.00" shape="273.08,131.04 273.51,131.66 274.09,132.17 274.82,132.56 275.69,132.85"/>
    </edge>
    <edge id=":354673727_4" function="internal">
        <lane id=":354673727_4_0" index="0" allow="pedestrian bicycle" speed="5.56" length="5.61" width="1.50" shape="273.08,131.04 273.41,132.17 273.24,133.37 272.57,134.64 271.41,135.99"/>
    </edge>
    <edge id=":354673727_5" function="internal">
        <lane id=":354673727_5_0" index="0" allow="pedestrian bicycle" speed="2.89" length="2.92" width="2.00" shape="273.08,131.04 272.99,131.94 272.67,132.39 272.11,132.41 271.31,131.99"/>
    </edge>
    <edge id=":354673727_6" function="internal">
        <lane id=":354673727_6_0" index="0" allow="pedestrian bicycle" speed="4.46" length="3.32" width="1.50" shape="270.36,134.92 271.04,134.13 271.43,133.38 271.52,132.66 271.31,131.99"/>
    </edge>
    <edge id=":354673727_7" function="internal">
        <lane id=":354673727_7_0" index="0" allow="pedestrian bicycle" speed="5.56" length="5.97" width="1.50" shape="270.36,134.92 271.72,133.78 273.07,133.05 274.39,132.74 275.69,132.85"/>
    </edge>
    <edge id=":354673727_8" function="internal">
        <lane id=":354673727_8_0" index="0" allow="pedestrian bicycle" speed="2.50" length="2.19" width="1.50" shape="270.36,134.92 271.02,134.80 271.42,134.93 271.55,135.33 271.41,135.99"/>
    </edge>
    <edge id=":354673730_0" function="internal">
        <lane id=":354673730_0_0" index="0" allow="pedestrian bicycle" speed="6.95" length="4.46" width="2.00" shape="307.01,140.87 305.78,140.85 304.98,140.37 304.17,139.78 302.91,139.47"/>
    </edge>
    <edge id=":354673730_1" function="internal">
        <lane id=":354673730_1_0" index="0" disallow="tram rail_urban rail rail_electric rail_fast ship container cable_car subway aircraft wheelchair scooter drone" speed="3.65" length="1.44" shape="307.01,140.87 305.66,140.35"/>
    </edge>
    <edge id=":354673730_3" function="internal">
        <lane id=":354673730_3_0" index="0" disallow="tram rail_urban rail rail_electric rail_fast ship container cable_car subway aircraft wheelchair scooter drone" speed="3.65" length="3.23" shape="305.66,140.35 305.10,139.65 305.31,138.79 306.31,137.74"/>
    </edge>
    <edge id=":354673730_2" function="internal">
        <lane id=":354673730_2_0" index="0" allow="pedestrian bicycle" speed="6.95" length="3.38" width="2.00" shape="302.97,137.47 303.97,137.58 304.65,137.76 305.33,137.86 306.31,137.74"/>
    </edge>
    <edge id=":4565665206_0" function="internal">
        <lane id=":4565665206_0_0" index="0" disallow="tram rail_urban rail rail_electric rail_fast ship container cable_car subway aircraft wheelchair scooter drone" speed="13.89" length="12.32" shape="299.30,97.92 297.22,101.03 295.79,103.16 294.19,105.16 291.63,107.87"/>
        <lane id=":4565665206_0_1" index="1" disallow="tram rail_urban rail rail_electric rail_fast ship container cable_car subway aircraft wheelchair scooter drone" speed="13.89" length="12.32" shape="296.67,96.10 294.68,99.07 293.32,101.11 291.80,103.03 289.36,105.62"/>
    </edge>
    <edge id=":4565665206_2" function="internal">
        <lane id=":4565665206_2_0" index="0" allow="pedestrian delivery bicycle" speed="6.77" length="4.76" shape="296.67,96.10 293.52,99.67"/>
    </edge>
    <edge id=":4565665206_8" function="internal">
        <lane id=":4565665206_8_0" index="0" allow="pedestrian delivery bicycle" speed="6.77" length="10.43" shape="293.52,99.67 290.83,100.57 288.61,98.81 286.85,94.40"/>
    </edge>
    <edge id=":4565665206_3" function="internal">
        <lane id=":4565665206_3_0" index="0" allow="pedestrian delivery bicycle" speed="4.66" length="6.34" shape="289.94,93.57 290.67,95.41 291.60,96.15 292.72,95.77 294.04,94.28"/>
    </edge>
    <edge id=":4565665206_4" function="internal">
        <lane id=":4565665206_4_0" index="0" allow="pedestrian delivery bicycle" speed="9.64" length="12.52" shape="289.94,93.57 290.80,97.71 291.00,101.10 290.51,103.74 289.36,105.62"/>
    </edge>
    <edge id=":4565665206_5" function="internal">
        <lane id=":4565665206_5_0" index="0" allow="pedestrian delivery bicycle" speed="3.65" length="4.67" shape="289.94,93.57 289.47,94.94 288.80,95.53 287.93,95.35 286.85,94.40"/>
    </edge>
    <edge id=":4565665206_6" function="internal">
        <lane id=":4565665206_6_0" index="0" allow="pedestrian delivery bicycle" speed="8.35" length="9.24" shape="287.08,103.37 287.70,102.17 287.87,100.27 287.59,97.68 286.85,94.40"/>
    </edge>
    <edge id=":4565665206_7" function="internal">
        <lane id=":4565665206_7_0" index="0" disallow="tram rail_urban rail rail_electric rail_fast ship container cable_car subway aircraft wheelchair scooter drone" speed="13.89" length="11.47" shape="287.08,103.37 289.25,101.03 290.81,99.04 292.25,96.94 294.04,94.28"/>
    </edge>
    <edge id=":4565665208_0" function="internal">
        <lane id=":4565665208_0_0" index="0" disallow="tram rail_urban rail rail_electric rail_fast ship container cable_car subway aircraft wheelchair scooter drone" speed="13.89" length="8.88" shape="237.03,63.79 235.39,55.06"/>
    </edge>
    <edge id=":4565665208_1" function="internal">
        <lane id=":4565665208_1_0" index="0" allow="pedestrian delivery bicycle" speed="8.03" length="2.45" shape="237.03,63.79 237.19,61.35"/>
    </edge>
    <edge id=":4565665208_8" function="internal">
        <lane id=":4565665208_8_0" index="0" allow="pedestrian delivery bicycle" speed="8.03" length="10.33" shape="237.19,61.35 238.62,59.15 241.35,57.20 245.35,55.49"/>
    </edge>
    <edge id=":4565665208_2" function="internal">
        <lane id=":4565665208_2_0" index="0" allow="pedestrian delivery bicycle" speed="5.56" length="5.63" shape="246.39,58.52 244.84,59.23 243.82,60.15 243.31,61.27 243.32,62.59"/>
    </edge>
    <edge id=":4565665208_3" function="internal">
        <lane id=":4565665208_3_0" index="0" allow="pedestrian delivery bicycle" speed="7.43" length="13.42" shape="246.39,58.52 242.05,59.55 238.77,59.31 236.55,57.82 235.39,55.06"/>
    </edge>
    <edge id=":4565665208_4" function="internal">
        <lane id=":4565665208_4_0" index="0" allow="pedestrian delivery bicycle" speed="3.65" length="4.67" shape="246.39,58.52 244.99,58.15 244.36,57.52 244.48,56.63 245.35,55.49"/>
    </edge>
    <edge id=":4565665208_5" function="internal">
        <lane id=":4565665208_5_0" index="0" allow="pedestrian delivery bicycle" speed="4.71" length="4.71" shape="241.68,53.89 242.10,55.00 242.85,55.63 243.93,55.80 245.35,55.49"/>
    </edge>
    <edge id=":4565665208_6" function="internal">
        <lane id=":4565665208_6_0" index="0" disallow="tram rail_urban rail rail_electric rail_fast ship container cable_car subway aircraft wheelchair scooter drone" speed="13.89" length="8.86" shape="241.68,53.89 243.32,62.59"/>
        <lane id=":4565665208_6_1" index="1" disallow="tram rail_urban rail rail_electric rail_fast ship container cable_car subway aircraft wheelchair scooter drone" speed="13.89" length="8.86" shape="238.54,54.47 240.18,63.19"/>
    </edge>
    <edge id=":5483238235_0" function="internal">
        <lane id=":5483238235_0_0" index="0" disallow="tram rail_urban rail rail_electric rail_fast ship container cable_car subway aircraft wheelchair scooter drone" speed="13.89" length="5.80" shape="305.52,83.20 305.02,84.89 305.41,86.28 305.79,87.66 305.24,89.32"/>
        <lane id=":5483238235_0_1" index="1" disallow="tram rail_urban rail rail_electric rail_fast ship container cable_car subway aircraft wheelchair scooter drone" speed="13.89" length="5.80" shape="305.52,83.20 302.61,87.51"/>
    </edge>
    <edge id=":5483238235_2" function="internal">
        <lane id=":5483238235_2_0" index="0" disallow="tram rail_urban rail rail_electric rail_fast ship container cable_car subway aircraft wheelchair scooter drone" speed="13.89" length="5.11" shape="299.98,85.69 302.84,81.45"/>
    </edge>
    <edge id=":603886236_0" function="internal">
        <lane id=":603886236_0_0" index="0" allow="pedestrian bicycle" speed="2.04" length="1.46" width="1.00" shape="0.06,133.54 -0.35,133.33 -0.50,133.10 -0.40,132.83 -0.06,132.54"/>
    </edge>
    <edge id=":603886247_0" function="internal">
        <lane id=":603886247_0_0" index="0" disallow="tram rail_urban rail rail_electric rail_fast ship container cable_car subway aircraft wheelchair scooter drone" speed="3.65" length="4.67" shape="235.35,54.86 235.92,53.54 236.64,53.00 237.50,53.24 238.50,54.28"/>
    </edge>
    <edge id=":6411514091_0" function="internal">
        <lane id=":6411514091_0_0" index="0" allow="pedestrian bicycle" speed="5.13" length="2.87" width="2.00" shape="243.14,120.29 242.59,120.64 242.31,121.26 242.13,122.01 241.90,122.74"/>
    </edge>
    <edge id=":6411514091_1" function="internal">
        <lane id=":6411514091_1_0" index="0" allow="pedestrian bicycle" speed="2.89" length="0.44" width="2.00" shape="243.14,120.29 242.73,120.14"/>
    </edge>