<?xml version="1.0" encoding="UTF-8"?>

<!-- generated on 2024-09-03 01:38:22 by Eclipse SUMO netconvert Version 1.20.0
<configuration xmlns:xsi="http://www.w3.org/2001/XMLSchema-instance" xsi:noNamespaceSchemaLocation="http://sumo.dlr.de/xsd/netconvertConfiguration.xsd">

    <input>
        <osm-files value="train_files/roundabout/hard/osm_files/map(41).osm"/>
    </input>

    <output>
        <output-file value="train_files/roundabout/hard/outputs/map(41)_dict/map(41)/map(41).net.xml"/>
    </output>

    <projection>
        <proj.utm value="true"/>
    </projection>

    <building_defaults>
        <default.junctions.keep-clear value="false"/>
    </building_defaults>

</configuration>
-->

<net version="1.20" junctionCornerDetail="5" limitTurnSpeed="5.50" xmlns:xsi="http://www.w3.org/2001/XMLSchema-instance" xsi:noNamespaceSchemaLocation="http://sumo.dlr.de/xsd/net_file.xsd">

    <location netOffset="-495419.37,-5408282.09" convBoundary="0.00,0.00,929.58,2414.04" origBoundary="2.937562,48.827508,2.950255,48.849218" projParameter="+proj=utm +zone=31 +ellps=WGS84 +datum=WGS84 +units=m +no_defs"/>

    <type id="highway.primary" priority="12" numLanes="2" speed="27.78" disallow="tram rail_urban rail rail_electric rail_fast ship container cable_car subway aircraft wheelchair scooter drone" oneway="0"/>
    <type id="highway.secondary" priority="11" numLanes="1" speed="27.78" disallow="tram rail_urban rail rail_electric rail_fast ship container cable_car subway aircraft wheelchair scooter drone" oneway="0"/>
    <type id="highway.service" priority="1" numLanes="1" speed="5.56" allow="pedestrian delivery bicycle" oneway="0"/>

    <edge id=":10110544284_0" function="internal">
        <lane id=":10110544284_0_0" index="0" disallow="tram rail_urban rail rail_electric rail_fast ship container cable_car subway aircraft wheelchair scooter drone" speed="8.46" length="6.03" shape="208.01,2263.90 209.04,2265.36 209.86,2266.36 210.88,2267.03 212.55,2267.48"/>
    </edge>
    <edge id=":10110544284_1" function="internal">
        <lane id=":10110544284_1_0" index="0" disallow="tram rail_urban rail rail_electric rail_fast ship container cable_car subway aircraft wheelchair scooter drone" speed="11.19" length="6.01" shape="206.26,2267.96 208.04,2267.31 209.34,2267.07 210.67,2267.15 212.55,2267.48"/>
        <lane id=":10110544284_1_1" index="1" disallow="tram rail_urban rail rail_electric rail_fast ship container cable_car subway aircraft wheelchair scooter drone" speed="10.41" length="6.01" shape="206.58,2271.27 208.12,2270.68 209.23,2270.39 210.36,2270.38 211.98,2270.62"/>
    </edge>
    <edge id=":10110544288_0" function="internal">
        <lane id=":10110544288_0_0" index="0" disallow="tram rail_urban rail rail_electric rail_fast ship container cable_car subway aircraft wheelchair scooter drone" speed="12.50" length="10.18" shape="194.29,2293.42 192.85,2290.66 192.30,2288.56 192.36,2286.32 192.74,2283.17"/>
        <lane id=":10110544288_0_1" index="1" disallow="tram rail_urban rail rail_electric rail_fast ship container cable_car subway aircraft wheelchair scooter drone" speed="11.90" length="10.18" shape="197.62,2292.76 196.27,2290.27 195.67,2288.38 195.62,2286.38 195.92,2283.54"/>
    </edge>
    <edge id=":10110544288_2" function="internal">
        <lane id=":10110544288_2_0" index="0" disallow="tram rail_urban rail rail_electric rail_fast ship container cable_car subway aircraft wheelchair scooter drone" speed="11.08" length="10.00" shape="187.58,2290.03 189.60,2288.28 191.12,2287.07 192.15,2285.62 192.74,2283.17"/>
        <lane id=":10110544288_2_1" index="1" disallow="tram rail_urban rail rail_electric rail_fast ship container cable_car subway aircraft wheelchair scooter drone" speed="12.31" length="10.00" shape="189.81,2292.32 192.28,2290.11 194.06,2288.51 195.24,2286.63 195.92,2283.54"/>
    </edge>
    <edge id=":10110544294_0" function="internal">
        <lane id=":10110544294_0_0" index="0" disallow="tram rail_urban rail rail_electric rail_fast ship container cable_car subway aircraft wheelchair scooter drone" speed="11.92" length="9.35" shape="218.11,2268.96 220.63,2269.78 222.50,2269.68 224.43,2269.06 227.12,2268.31"/>
        <lane id=":10110544294_0_1" index="1" disallow="tram rail_urban rail rail_electric rail_fast ship container cable_car subway aircraft wheelchair scooter drone" speed="12.49" length="10.30" shape="218.11,2268.96 220.85,2270.36 222.81,2271.36 224.84,2271.77 227.78,2271.44"/>
    </edge>
    <edge id=":10110544294_2" function="internal">
        <lane id=":10110544294_2_0" index="0" disallow="tram rail_urban rail rail_electric rail_fast ship container cable_car subway aircraft wheelchair scooter drone" speed="12.77" length="10.37" shape="218.11,2268.96 221.06,2270.32 223.02,2271.50 224.55,2273.14 226.21,2275.89"/>
        <lane id=":10110544294_2_1" index="1" disallow="tram rail_urban rail rail_electric rail_fast ship container cable_car subway aircraft wheelchair scooter drone" speed="12.05" length="10.37" shape="216.78,2271.86 219.37,2273.10 221.06,2274.20 222.37,2275.72 223.82,2278.18"/>
    </edge>
    <edge id=":10110544296_0" function="internal">
        <lane id=":10110544296_0_0" index="0" disallow="tram rail_urban rail rail_electric rail_fast ship container cable_car subway aircraft wheelchair scooter drone" speed="11.30" length="10.82" shape="234.55,2280.83 232.18,2282.65 230.62,2284.08 229.59,2285.83 228.84,2288.63"/>
        <lane id=":10110544296_0_1" index="1" disallow="tram rail_urban rail rail_electric rail_fast ship container cable_car subway aircraft wheelchair scooter drone" speed="12.12" length="10.82" shape="231.99,2278.77 229.31,2280.91 227.60,2282.64 226.52,2284.74 225.70,2288.02"/>
    </edge>
    <edge id=":10110544296_2" function="internal">
        <lane id=":10110544296_2_0" index="0" disallow="tram rail_urban rail rail_electric rail_fast ship container cable_car subway aircraft wheelchair scooter drone" speed="12.33" length="10.82" shape="227.16,2277.63 228.69,2280.64 229.40,2282.92 229.40,2285.30 228.84,2288.63"/>
        <lane id=":10110544296_2_1" index="1" disallow="tram rail_urban rail rail_electric rail_fast ship container cable_car subway aircraft wheelchair scooter drone" speed="11.59" length="10.82" shape="223.93,2278.40 225.33,2281.04 226.04,2283.02 226.15,2285.09 225.70,2288.02"/>
    </edge>
    <edge id=":10110544297_0" function="internal">
        <lane id=":10110544297_0_0" index="0" allow="pedestrian delivery bicycle" speed="4.85" length="5.26" shape="218.34,2305.95 217.93,2304.52 217.17,2303.66 216.06,2303.38 214.60,2303.68"/>
    </edge>
    <edge id=":10110544297_1" function="internal">
        <lane id=":10110544297_1_0" index="0" allow="pedestrian delivery bicycle" speed="7.13" length="6.39" shape="222.74,2299.49 221.97,2300.44 221.51,2301.76 221.35,2303.45 221.51,2305.52"/>
    </edge>
    <edge id=":10110544297_2" function="internal">
        <lane id=":10110544297_2_0" index="0" disallow="tram rail_urban rail rail_electric rail_fast ship container cable_car subway aircraft wheelchair scooter drone" speed="22.22" length="8.79" shape="222.74,2299.49 220.58,2301.16 218.96,2302.10 217.19,2302.78 214.60,2303.68"/>
        <lane id=":10110544297_2_1" index="1" disallow="tram rail_urban rail rail_electric rail_fast ship container cable_car subway aircraft wheelchair scooter drone" speed="10.63" length="8.79" shape="220.71,2297.02 218.84,2298.66 217.46,2299.79 215.91,2300.44 213.53,2300.66"/>
    </edge>
    <edge id=":10110544300_0" function="internal">
        <lane id=":10110544300_0_0" index="0" disallow="tram rail_urban rail rail_electric rail_fast ship container cable_car subway aircraft wheelchair scooter drone" speed="12.26" length="9.19" shape="204.34,2302.68 201.80,2302.06 199.97,2302.27 198.12,2302.99 195.51,2303.87"/>
        <lane id=":10110544300_0_1" index="1" disallow="tram rail_urban rail rail_electric rail_fast ship container cable_car subway aircraft wheelchair scooter drone" speed="12.87" length="10.15" shape="204.34,2302.68 201.54,2301.50 199.55,2300.62 197.54,2300.30 194.68,2300.78"/>
    </edge>
    <edge id=":10110544300_2" function="internal">
        <lane id=":10110544300_2_0" index="0" disallow="tram rail_urban rail rail_electric rail_fast ship container cable_car subway aircraft wheelchair scooter drone" speed="11.98" length="10.30" shape="204.34,2302.68 201.33,2301.57 199.32,2300.52 197.73,2298.95 195.99,2296.30"/>
        <lane id=":10110544300_2_1" index="1" disallow="tram rail_urban rail rail_electric rail_fast ship container cable_car subway aircraft wheelchair scooter drone" speed="11.34" length="10.30" shape="205.42,2299.66 202.76,2298.63 201.04,2297.60 199.70,2296.11 198.18,2293.70"/>
    </edge>
    <edge id=":10110549218_0" function="internal">
        <lane id=":10110549218_0_0" index="0" disallow="tram rail_urban rail rail_electric rail_fast ship container cable_car subway aircraft wheelchair scooter drone" speed="22.22" length="0.83" shape="192.88,2281.92 192.93,2281.55 192.98,2281.30 193.05,2281.06 193.18,2280.72"/>
        <lane id=":10110549218_0_1" index="1" disallow="tram rail_urban rail rail_electric rail_fast ship container cable_car subway aircraft wheelchair scooter drone" speed="22.22" length="0.83" shape="196.06,2282.28 196.08,2282.16 196.09,2282.08 196.12,2282.00 196.16,2281.88"/>
    </edge>
    <edge id=":10110549222_0" function="internal">
        <lane id=":10110549222_0_0" index="0" allow="pedestrian delivery bicycle" speed="3.65" length="4.67" shape="213.12,2319.26 211.75,2319.72 210.87,2319.55 210.48,2318.74 210.58,2317.30"/>
    </edge>
    <edge id=":1228279809_0" function="internal">
        <lane id=":1228279809_0_0" index="0" disallow="tram rail_urban rail rail_electric rail_fast ship container cable_car subway aircraft wheelchair scooter drone" speed="15.37" length="6.28" shape="201.19,2242.09 201.00,2243.92 201.12,2245.18 201.48,2246.44 202.00,2248.23"/>
    </edge>
    <edge id=":1228279809_1" function="internal">
        <lane id=":1228279809_1_0" index="0" disallow="tram rail_urban rail rail_electric rail_fast ship container cable_car subway aircraft wheelchair scooter drone" speed="3.65" length="1.33" shape="201.19,2242.09 200.29,2243.07"/>
    </edge>
    <edge id=":1228279809_3" function="internal">
        <lane id=":1228279809_3_0" index="0" disallow="tram rail_urban rail rail_electric rail_fast ship container cable_car subway aircraft wheelchair scooter drone" speed="3.65" length="3.34" shape="200.29,2243.07 200.21,2243.15 199.36,2243.41 198.63,2242.89 198.03,2241.58"/>
    </edge>
    <edge id=":1228279809_2" function="internal">
        <lane id=":1228279809_2_0" index="0" disallow="tram rail_urban rail rail_electric rail_fast ship container cable_car subway aircraft wheelchair scooter drone" speed="20.83" length="6.80" shape="198.21,2248.32 198.39,2246.34 198.17,2244.96 197.93,2243.57 198.03,2241.58"/>
    </edge>
    <edge id=":5769803920_0" function="internal">
        <lane id=":5769803920_0_0" index="0" disallow="tram rail_urban rail rail_electric rail_fast ship container cable_car subway aircraft wheelchair scooter drone" speed="3.65" length="4.67" shape="928.94,-1.47 930.36,-1.21 931.04,-0.64 930.99,0.26 930.21,1.47"/>
    </edge>
    <edge id=":8848367149_0" function="internal">
        <lane id=":8848367149_0_0" index="0" disallow="tram rail_urban rail rail_electric rail_fast ship container cable_car subway aircraft wheelchair scooter drone" speed="8.71" length="5.93" shape="197.19,2273.46 198.08,2272.01 198.37,2270.84 198.29,2269.58 198.09,2267.82"/>
    </edge>
    <edge id=":8848367149_1" function="internal">
        <lane id=":8848367149_1_0" index="0" disallow="tram rail_urban rail rail_electric rail_fast ship container cable_car subway aircraft wheelchair scooter drone" speed="10.99" length="5.89" shape="197.19,2273.46 198.32,2271.97 199.23,2271.03 200.34,2270.35 202.05,2269.62"/>
        <lane id=":8848367149_1_1" index="1" disallow="tram rail_urban rail rail_electric rail_fast ship container cable_car subway aircraft wheelchair scooter drone" speed="10.22" length="5.89" shape="199.77,2275.35 200.77,2274.10 201.60,2273.36 202.60,2272.85 204.10,2272.25"/>
    </edge>

    <edge id="-106803421" from="1228279809" to="5769803920" priority="11" type="highway.secondary" shape="199.91,2240.02 204.96,2209.03 212.60,2162.04 218.30,2110.05 221.98,2070.01 222.77,2031.15 218.79,1980.14 214.10,1939.44 214.18,1916.38 214.27,1901.07 214.32,1899.92 214.46,1898.77 216.62,1885.57 220.93,1871.24 225.74,1857.70 261.91,1798.90 334.83,1683.86 364.27,1634.80 372.73,1616.68 376.50,1601.21 382.57,1566.08 403.36,1432.91 408.00,1401.30 411.72,1375.97 461.83,1028.15 468.21,989.64 470.28,956.00 469.09,894.37 469.86,861.40 483.15,733.42 494.65,691.57 540.89,661.01 549.47,654.59 564.32,640.93 583.25,622.26 669.24,538.10 741.41,459.64 768.30,428.80 782.83,407.22 794.02,377.93 884.55,83.96 903.59,23.72 910.81,12.51 919.88,4.20 929.58,0.00">
        <lane id="-106803421_0" index="0" disallow="tram rail_urban rail rail_electric rail_fast ship container cable_car subway aircraft wheelchair scooter drone" speed="13.89" length="2451.69" shape="198.03,2241.58 203.38,2208.78 211.01,2161.82 216.71,2109.89 220.38,2069.92 221.17,2031.20 217.20,1980.29 212.50,1939.53 212.58,1916.37 212.67,1901.06 212.72,1899.78 212.88,1898.54 215.05,1885.20 219.41,1870.75 224.29,1857.01 260.55,1798.05 333.47,1683.02 362.85,1634.05 371.21,1616.14 374.93,1600.89 380.99,1565.82 401.78,1432.68 406.42,1401.06 410.13,1375.74 460.24,1027.91 466.62,989.46 468.68,955.97 467.49,894.37 468.26,861.30 481.57,733.13 493.27,690.57 539.97,659.71 548.44,653.36 563.21,639.77 582.12,621.11 668.09,536.99 740.21,458.57 767.03,427.83 781.40,406.48 792.51,377.41 883.02,83.48 902.13,23.03 909.58,11.47 919.00,2.84 928.94,-1.47"/>
        <param key="ref" value="D 20E"/>
    </edge>
    <edge id="-1104858960" from="10110549222" to="10110544297" priority="1" type="highway.service" shape="211.85,2318.28 220.16,2307.49 219.19,2300.34">
        <lane id="-1104858960_0" index="0" allow="pedestrian delivery bicycle" speed="5.56" length="14.05" shape="210.58,2317.30 218.48,2307.04 218.34,2305.95"/>
    </edge>
    <edge id="106803421" from="5769803920" to="1228279809" priority="11" type="highway.secondary" shape="929.58,0.00 919.88,4.20 910.81,12.51 903.59,23.72 884.55,83.96 794.02,377.93 782.83,407.22 768.30,428.80 741.41,459.64 669.24,538.10 583.25,622.26 564.32,640.93 549.47,654.59 540.89,661.01 494.65,691.57 483.15,733.42 469.86,861.40 469.09,894.37 470.28,956.00 468.21,989.64 461.83,1028.15 411.72,1375.97 408.00,1401.30 403.36,1432.91 382.57,1566.08 376.50,1601.21 372.73,1616.68 364.27,1634.80 334.83,1683.86 261.91,1798.90 225.74,1857.70 220.93,1871.24 216.62,1885.57 214.46,1898.77 214.32,1899.92 214.27,1901.07 214.18,1916.38 214.10,1939.44 218.79,1980.14 222.77,2031.15 221.98,2070.01 218.30,2110.05 212.60,2162.04 204.96,2209.03 199.91,2240.02">
        <lane id="106803421_0" index="0" disallow="tram rail_urban rail rail_electric rail_fast ship container cable_car subway aircraft wheelchair scooter drone" speed="13.89" length="2448.37" shape="930.21,1.47 920.77,5.56 912.04,13.55 905.06,24.40 886.08,84.43 795.54,378.45 784.26,407.96 769.58,429.78 742.60,460.70 670.39,539.21 584.37,623.40 565.42,642.09 550.49,655.83 541.81,662.32 496.04,692.58 484.72,733.72 471.46,861.50 470.69,894.38 471.88,956.04 469.80,989.82 463.41,1028.40 413.30,1376.20 409.58,1401.53 404.95,1433.15 384.15,1566.34 378.06,1601.54 374.25,1617.21 365.68,1635.56 336.19,1684.70 263.26,1799.75 227.20,1858.40 222.46,1871.74 218.18,1885.93 216.04,1899.03 215.91,1900.05 215.87,1901.11 215.78,1916.39 215.70,1939.35 220.38,1979.99 224.37,2031.10 223.58,2070.10 219.90,2110.21 214.19,2162.26 206.54,2209.29 201.19,2242.09"/>
        <param key="ref" value="D 20E"/>
    </edge>
    <edge id="1104858956#0" from="10110549218" to="8848367149" priority="12" type="highway.primary" spreadType="center" shape="194.52,2281.69 196.10,2277.66 198.65,2274.18">
        <lane id="1104858956#0_0" index="0" disallow="tram rail_urban rail rail_electric rail_fast ship container cable_car subway aircraft wheelchair scooter drone" speed="22.22" length="7.95" shape="193.18,2280.72 194.68,2276.89 197.19,2273.46"/>
        <lane id="1104858956#0_1" index="1" disallow="tram rail_urban rail rail_electric rail_fast ship container cable_car subway aircraft wheelchair scooter drone" speed="22.22" length="7.95" shape="196.16,2281.88 197.51,2278.44 199.77,2275.35"/>
        <param key="ref" value="D 934"/>
    </edge>
    <edge id="1104858956#1" from="8848367149" to="10110544284" priority="12" type="highway.primary" spreadType="center" shape="198.65,2274.18 202.44,2271.19 206.94,2269.41 211.75,2268.96">
        <lane id="1104858956#1_0" index="0" disallow="tram rail_urban rail rail_electric rail_fast ship container cable_car subway aircraft wheelchair scooter drone" speed="22.22" length="3.60" shape="202.05,2269.62 206.26,2267.96"/>
        <lane id="1104858956#1_1" index="1" disallow="tram rail_urban rail rail_electric rail_fast ship container cable_car subway aircraft wheelchair scooter drone" speed="22.22" length="3.60" shape="204.10,2272.25 206.58,2271.27"/>
        <param key="ref" value="D 934"/>
    </edge>
    <edge id="1104858956#2" from="10110544284" to="10110544294" priority="12" type="highway.primary" spreadType="center" shape="211.75,2268.96 215.92,2269.71 219.77,2271.47">
        <lane id="1104858956#2_0" index="0" disallow="tram rail_urban rail rail_electric rail_fast ship container cable_car subway aircraft wheelchair scooter drone" speed="22.22" length="5.39" shape="212.55,2267.48 216.40,2268.17 218.11,2268.96"/>
        <lane id="1104858956#2_1" index="1" disallow="tram rail_urban rail rail_electric rail_fast ship container cable_car subway aircraft wheelchair scooter drone" speed="22.22" length="5.39" shape="211.98,2270.62 215.44,2271.25 216.78,2271.86"/>
        <param key="ref" value="D 934"/>
    </edge>
    <edge id="1104858956#3" from="10110544294" to="10110544296" priority="12" type="highway.primary" spreadType="center" shape="219.77,2271.47 224.07,2275.31 226.83,2280.37 227.71,2286.07">
        <lane id="1104858956#3_0" index="0" disallow="tram rail_urban rail rail_electric rail_fast ship container cable_car subway aircraft wheelchair scooter drone" speed="22.22" length="1.12" shape="226.21,2275.89 227.16,2277.63"/>
        <lane id="1104858956#3_1" index="1" disallow="tram rail_urban rail rail_electric rail_fast ship container cable_car subway aircraft wheelchair scooter drone" speed="22.22" length="1.12" shape="223.82,2278.18 223.93,2278.40"/>
        <param key="ref" value="D 934"/>
    </edge>
    <edge id="1104858956#4" from="10110544296" to="10110544297" priority="12" type="highway.primary" spreadType="center" shape="227.71,2286.07 226.60,2291.73 223.64,2296.68 219.19,2300.34">
        <lane id="1104858956#4_0" index="0" disallow="tram rail_urban rail rail_electric rail_fast ship container cable_car subway aircraft wheelchair scooter drone" speed="22.22" length="11.72" shape="228.84,2288.63 228.12,2292.31 224.87,2297.74 222.74,2299.49"/>
        <lane id="1104858956#4_1" index="1" disallow="tram rail_urban rail rail_electric rail_fast ship container cable_car subway aircraft wheelchair scooter drone" speed="22.22" length="11.72" shape="225.70,2288.02 225.09,2291.15 222.41,2295.62 220.71,2297.02"/>
        <param key="ref" value="D 934"/>
    </edge>
    <edge id="1104858956#5" from="10110544297" to="10110544300" priority="12" type="highway.primary" spreadType="center" shape="219.19,2300.34 213.74,2302.28 207.96,2302.28 202.53,2300.32">
        <lane id="1104858956#5_0" index="0" disallow="tram rail_urban rail rail_electric rail_fast ship container cable_car subway aircraft wheelchair scooter drone" speed="22.22" length="9.39" shape="214.60,2303.68 214.02,2303.88 207.68,2303.88 204.34,2302.68"/>
        <lane id="1104858956#5_1" index="1" disallow="tram rail_urban rail rail_electric rail_fast ship container cable_car subway aircraft wheelchair scooter drone" speed="22.22" length="9.39" shape="213.53,2300.66 208.24,2300.68 205.42,2299.66"/>
        <param key="ref" value="D 934"/>
    </edge>
    <edge id="1104858956#6" from="10110544300" to="10110544288" priority="12" type="highway.primary" spreadType="center" shape="202.53,2300.32 198.05,2296.64 195.11,2291.66 194.03,2285.98">
        <lane id="1104858956#6_0" index="0" disallow="tram rail_urban rail rail_electric rail_fast ship container cable_car subway aircraft wheelchair scooter drone" speed="22.22" length="2.22" shape="195.99,2296.30 194.29,2293.42"/>
        <lane id="1104858956#6_1" index="1" disallow="tram rail_urban rail rail_electric rail_fast ship container cable_car subway aircraft wheelchair scooter drone" speed="22.22" length="2.22" shape="198.18,2293.70 197.62,2292.76"/>
        <param key="ref" value="D 934"/>
    </edge>
    <edge id="1104858956#7" from="10110544288" to="10110549218" priority="12" type="highway.primary" spreadType="center">
        <lane id="1104858956#7_0" index="0" disallow="tram rail_urban rail rail_electric rail_fast ship container cable_car subway aircraft wheelchair scooter drone" speed="22.22" length="1.27" shape="192.74,2283.17 192.88,2281.92"/>
        <lane id="1104858956#7_1" index="1" disallow="tram rail_urban rail rail_electric rail_fast ship container cable_car subway aircraft wheelchair scooter drone" speed="22.22" length="1.27" shape="195.92,2283.54 196.06,2282.28"/>
        <param key="ref" value="D 934"/>
    </edge>
    <edge id="1104858957" from="10110544294" to="10110544302" priority="12" type="highway.primary" spreadType="center" shape="219.77,2271.47 228.40,2269.68 250.48,2257.18 376.32,2181.71 420.65,2156.02 466.90,2127.52">
        <lane id="1104858957_0" index="0" disallow="tram rail_urban rail rail_electric rail_fast ship container cable_car subway aircraft wheelchair scooter drone" speed="22.22" length="278.42" shape="227.12,2268.31 227.83,2268.16 249.67,2255.79 375.50,2180.33 419.83,2154.65 465.89,2126.27"/>
        <lane id="1104858957_1" index="1" disallow="tram rail_urban rail rail_electric rail_fast ship container cable_car subway aircraft wheelchair scooter drone" speed="22.22" length="278.42" shape="227.78,2271.44 228.97,2271.19 251.29,2258.56 377.13,2183.09 421.47,2157.40 467.54,2129.01"/>
        <param key="ref" value="D 934"/>
    </edge>
    <edge id="1104858958" from="10110544302" to="10110544296" priority="12" type="highway.primary" spreadType="center" shape="470.21,2132.99 428.02,2157.71 380.25,2186.06 250.39,2266.27 231.85,2280.92 227.71,2286.07">
        <lane id="1104858958_0" index="0" disallow="tram rail_urban rail rail_electric rail_fast ship container cable_car subway aircraft wheelchair scooter drone" speed="22.22" length="278.66" shape="470.83,2134.49 428.84,2159.09 381.08,2187.43 251.31,2267.58 234.55,2280.83"/>
        <lane id="1104858958_1" index="1" disallow="tram rail_urban rail rail_electric rail_fast ship container cable_car subway aircraft wheelchair scooter drone" speed="22.22" length="278.66" shape="469.18,2131.74 427.21,2156.33 379.42,2184.69 249.47,2264.96 231.99,2278.77"/>
        <param key="ref" value="D 934"/>
    </edge>
    <edge id="1104858959" from="288047345" to="10110544288" priority="12" type="highway.primary" spreadType="center" shape="-1.80,2411.40 34.19,2390.69 104.19,2349.70 176.53,2303.20 189.14,2290.73 194.03,2285.98">
        <lane id="1104858959_0" index="0" disallow="tram rail_urban rail rail_electric rail_fast ship container cable_car subway aircraft wheelchair scooter drone" speed="22.22" length="225.47" shape="-2.38,2409.88 33.39,2389.30 103.35,2348.34 175.52,2301.95 187.58,2290.03"/>
        <lane id="1104858959_1" index="1" disallow="tram rail_urban rail rail_electric rail_fast ship container cable_car subway aircraft wheelchair scooter drone" speed="22.22" length="225.47" shape="-0.75,2412.64 34.99,2392.07 105.03,2351.07 177.53,2304.46 189.81,2292.32"/>
        <param key="ref" value="D 934"/>
    </edge>
    <edge id="1104858960" from="10110544297" to="10110549222" priority="1" type="highway.service" shape="219.19,2300.34 220.16,2307.49 211.85,2318.28">
        <lane id="1104858960_0" index="0" allow="pedestrian delivery bicycle" speed="5.56" length="16.73" shape="221.51,2305.52 221.84,2307.94 213.12,2319.26"/>
    </edge>
    <edge id="601100484" from="10110544300" to="288047345" priority="12" type="highway.primary" spreadType="center" shape="202.53,2300.32 190.88,2303.47 166.60,2317.19 36.10,2396.09 1.42,2416.90">
        <lane id="601100484_0" index="0" disallow="tram rail_urban rail rail_electric rail_fast ship container cable_car subway aircraft wheelchair scooter drone" speed="22.22" length="224.91" shape="195.51,2303.87 191.49,2304.96 167.40,2318.57 36.93,2397.46 2.48,2418.14"/>
        <lane id="601100484_1" index="1" disallow="tram rail_urban rail rail_electric rail_fast ship container cable_car subway aircraft wheelchair scooter drone" speed="22.22" length="224.91" shape="194.68,2300.78 190.27,2301.98 165.79,2315.81 35.28,2394.72 0.86,2415.38"/>
        <param key="ref" value="D 934"/>
    </edge>
    <edge id="956058414" from="8848367149" to="1228279809" priority="11" type="highway.secondary" spreadType="center" shape="198.65,2274.18 197.52,2261.22 197.37,2252.46 199.91,2240.02">
        <lane id="956058414_0" index="0" disallow="tram rail_urban rail rail_electric rail_fast ship container cable_car subway aircraft wheelchair scooter drone" speed="27.78" length="19.61" shape="198.09,2267.82 197.52,2261.22 197.37,2252.46 198.21,2248.32"/>
        <param key="ref" value="D 20E"/>
    </edge>
    <edge id="956058415" from="1228279809" to="10110544284" priority="11" type="highway.secondary" spreadType="center" shape="199.91,2240.02 204.93,2259.74 211.75,2268.96">
        <lane id="956058415_0" index="0" disallow="tram rail_urban rail rail_electric rail_fast ship container cable_car subway aircraft wheelchair scooter drone" speed="27.78" length="17.05" shape="202.00,2248.23 204.93,2259.74 208.01,2263.90"/>
        <param key="ref" value="D 20E"/>
    </edge>

    <junction id="10110544284" type="priority" x="211.75" y="2268.96" incLanes="956058415_0 1104858956#1_0 1104858956#1_1" intLanes=":10110544284_0_0 :10110544284_1_0 :10110544284_1_1" shape="211.70,2272.20 212.83,2265.90 211.21,2265.36 210.73,2264.96 210.32,2264.44 209.87,2263.78 209.29,2262.95 206.72,2264.85 206.96,2265.42 206.91,2265.68 206.75,2265.91 206.48,2266.11 206.09,2266.30 206.75,2272.92 208.52,2272.23 209.17,2272.05 209.84,2271.98 210.64,2272.03">
        <request index="0" response="010" foes="010" cont="0"/>
        <request index="1" response="000" foes="001" cont="0"/>
        <request index="2" response="000" foes="000" cont="0"/>
    </junction>
    <junction id="10110544288" type="priority" x="194.03" y="2285.98" incLanes="1104858956#6_0 1104858956#6_1 1104858959_0 1104858959_1" intLanes=":10110544288_0_0 :10110544288_0_1 :10110544288_2_0 :10110544288_2_1" shape="192.63,2293.76 199.28,2292.42 197.70,2289.45 197.35,2288.29 197.24,2287.09 197.30,2285.63 197.51,2283.72 191.15,2282.99 190.34,2285.59 189.65,2286.35 188.77,2287.01 187.71,2287.79 186.46,2288.88 190.92,2293.47 191.54,2293.07 191.84,2293.06 192.11,2293.17 192.38,2293.40">
        <request index="0" response="0000" foes="1100" cont="0"/>
        <request index="1" response="0000" foes="1000" cont="0"/>
        <request index="2" response="0001" foes="0001" cont="0"/>
        <request index="3" response="0011" foes="0011" cont="0"/>
    </junction>
    <junction id="10110544294" type="priority" x="219.77" y="2271.47" incLanes="1104858956#2_0 1104858956#2_1" intLanes=":10110544294_0_0 :10110544294_0_1 :10110544294_2_0 :10110544294_2_1" shape="222.80,2279.65 227.35,2274.63 227.12,2273.87 227.18,2273.57 227.37,2273.32 227.67,2273.14 228.10,2273.01 226.80,2266.74 223.78,2267.68 222.68,2268.06 221.61,2268.23 220.37,2268.09 218.78,2267.50 216.11,2273.32 219.22,2274.92 220.20,2275.69 221.02,2276.64 221.83,2277.91">
        <request index="0" response="0000" foes="0000" cont="0"/>
        <request index="1" response="0000" foes="0000" cont="0"/>
        <request index="2" response="0000" foes="0000" cont="0"/>
        <request index="3" response="0000" foes="0000" cont="0"/>
    </junction>
    <junction id="10110544296" type="priority" x="227.71" y="2286.07" incLanes="1104858958_0 1104858958_1 1104858956#3_0 1104858956#3_1" intLanes=":10110544296_0_0 :10110544296_0_1 :10110544296_2_0 :10110544296_2_1" shape="235.82,2281.86 230.72,2277.74 229.99,2278.11 229.66,2278.11 229.36,2277.98 229.08,2277.73 228.83,2277.36 222.14,2278.45 223.14,2280.26 223.86,2281.67 224.32,2282.90 224.52,2284.17 224.45,2285.70 224.13,2287.71 230.41,2288.94 231.42,2285.77 232.12,2284.80 233.05,2283.95 234.27,2283.04">
        <request index="0" response="0100" foes="0100" cont="0"/>
        <request index="1" response="1100" foes="1100" cont="0"/>
        <request index="2" response="0000" foes="0011" cont="0"/>
        <request index="3" response="0000" foes="0010" cont="0"/>
    </junction>
    <junction id="10110544297" type="priority" x="219.19" y="2300.34" incLanes="-1104858960_0 1104858956#4_0 1104858956#4_1" intLanes=":10110544297_0_0 :10110544297_1_0 :10110544297_2_0 :10110544297_2_1" shape="216.75,2306.17 223.09,2305.30 222.95,2303.19 223.01,2302.35 223.17,2301.66 223.42,2301.12 223.76,2300.73 219.70,2295.78 217.50,2297.70 216.65,2298.33 215.74,2298.76 214.57,2299.00 212.97,2299.08 215.13,2305.18 215.94,2305.07 216.24,2305.18 216.48,2305.40 216.65,2305.73">
        <request index="0" response="0100" foes="0100" cont="0"/>
        <request index="1" response="0000" foes="0000" cont="0"/>
        <request index="2" response="0000" foes="0001" cont="0"/>