<?xml version="1.0" encoding="UTF-8"?>

<!-- generated on 2024-09-03 01:37:06 by Eclipse SUMO netconvert Version 1.20.0
<configuration xmlns:xsi="http://www.w3.org/2001/XMLSchema-instance" xsi:noNamespaceSchemaLocation="http://sumo.dlr.de/xsd/netconvertConfiguration.xsd">

    <input>
        <osm-files value="train_files/intersection/easy/osm_files/map(101).osm"/>
    </input>

    <output>
        <output-file value="train_files/intersection/easy/outputs/map(101)_dict/map(101)/map(101).net.xml"/>
    </output>

    <projection>
        <proj.utm value="true"/>
    </projection>

    <building_defaults>
        <default.junctions.keep-clear value="false"/>
    </building_defaults>

</configuration>
-->

<net version="1.20" junctionCornerDetail="5" limitTurnSpeed="5.50" xmlns:xsi="http://www.w3.org/2001/XMLSchema-instance" xsi:noNamespaceSchemaLocation="http://sumo.dlr.de/xsd/net_file.xsd">

    <location netOffset="-686954.00,-5954479.91" convBoundary="0.00,0.00,1095.83,584.98" origBoundary="23.832600,53.705351,23.849217,53.710559" projParameter="+proj=utm +zone=34 +ellps=WGS84 +datum=WGS84 +units=m +no_defs"/>

    <type id="highway.cycleway" priority="1" numLanes="1" speed="5.56" allow="bicycle" oneway="0" width="2.00"/>
    <type id="highway.footway" priority="1" numLanes="1" speed="2.78" allow="pedestrian" oneway="1" width="2.00"/>
    <type id="highway.secondary" priority="11" numLanes="1" speed="27.78" disallow="tram rail_urban rail rail_electric rail_fast ship container cable_car subway aircraft wheelchair scooter drone" oneway="0"/>
    <type id="highway.service" priority="1" numLanes="1" speed="5.56" allow="pedestrian delivery bicycle" oneway="0"/>
    <type id="highway.steps" priority="1" numLanes="1" speed="1.39" allow="pedestrian" oneway="1" width="2.00"/>

    <edge id=":1624470242_0" function="internal">
        <lane id=":1624470242_0_0" index="0" disallow="tram rail_urban rail rail_electric rail_fast ship container cable_car subway aircraft wheelchair scooter drone" speed="16.67" length="5.09" shape="471.32,177.42 471.56,172.31"/>
        <lane id=":1624470242_0_1" index="1" disallow="tram rail_urban rail rail_electric rail_fast ship container cable_car subway aircraft wheelchair scooter drone" speed="16.67" length="5.09" shape="474.52,177.55 474.76,172.48"/>
    </edge>
    <edge id=":1624470249_0" function="internal">
        <lane id=":1624470249_0_0" index="0" allow="bicycle" speed="2.04" length="1.46" width="1.00" shape="501.66,179.42 501.30,179.15 501.18,178.90 501.32,178.65 501.71,178.42"/>
    </edge>
    <edge id=":1624470328_0" function="internal">
        <lane id=":1624470328_0_0" index="0" disallow="tram rail_urban rail rail_electric rail_fast ship container cable_car subway aircraft wheelchair scooter drone" speed="16.67" length="5.19" shape="466.60,223.60 466.74,218.47"/>
        <lane id=":1624470328_0_1" index="1" disallow="tram rail_urban rail rail_electric rail_fast ship container cable_car subway aircraft wheelchair scooter drone" speed="16.67" length="5.19" shape="469.79,223.71 469.94,218.54"/>
        <lane id=":1624470328_0_2" index="2" disallow="tram rail_urban rail rail_electric rail_fast ship container cable_car subway aircraft wheelchair scooter drone" speed="16.67" length="5.19" shape="472.99,223.83 473.14,218.62"/>
        <lane id=":1624470328_0_3" index="3" disallow="tram rail_urban rail rail_electric rail_fast ship container cable_car subway aircraft wheelchair scooter drone" speed="16.67" length="5.19" shape="476.19,223.94 476.34,218.69"/>
    </edge>
    <edge id=":1624470473_0" function="internal">
        <lane id=":1624470473_0_0" index="0" disallow="tram rail_urban rail rail_electric rail_fast ship container cable_car subway aircraft wheelchair scooter drone" speed="16.67" length="5.21" shape="459.94,205.36 454.73,205.09"/>
        <lane id=":1624470473_0_1" index="1" disallow="tram rail_urban rail rail_electric rail_fast ship container cable_car subway aircraft wheelchair scooter drone" speed="16.67" length="5.21" shape="460.10,202.17 454.90,201.89"/>
    </edge>
    <edge id=":1624470490_0" function="internal">
        <lane id=":1624470490_0_0" index="0" disallow="pedestrian tram rail_urban rail rail_electric rail_fast ship container cable_car subway aircraft wheelchair scooter drone" speed="16.67" length="5.26" shape="455.34,186.70 460.40,186.85"/>
        <lane id=":1624470490_0_1" index="1" disallow="pedestrian tram rail_urban rail rail_electric rail_fast ship container cable_car subway aircraft wheelchair scooter drone" speed="16.67" length="5.26" shape="455.18,189.90 460.37,190.05"/>
        <lane id=":1624470490_0_2" index="2" disallow="pedestrian tram rail_urban rail rail_electric rail_fast ship container cable_car subway aircraft wheelchair scooter drone" speed="16.67" length="5.26" shape="455.02,193.09 460.34,193.25"/>
        <lane id=":1624470490_0_3" index="3" disallow="pedestrian tram rail_urban rail rail_electric rail_fast ship container cable_car subway aircraft wheelchair scooter drone" speed="16.67" length="5.26" shape="454.86,196.29 460.31,196.45"/>
    </edge>
    <edge id=":1624470503_0" function="internal">
        <lane id=":1624470503_0_0" index="0" allow="pedestrian delivery bicycle" speed="3.65" length="4.67" shape="467.54,52.67 468.90,53.16 469.48,53.84 469.29,54.71 468.32,55.78"/>
    </edge>
    <edge id=":2895878688_0" function="internal">
        <lane id=":2895878688_0_0" index="0" disallow="tram rail_urban rail rail_electric rail_fast ship container cable_car subway aircraft wheelchair scooter drone" speed="16.67" length="5.23" shape="490.61,173.02 490.34,178.36"/>
        <lane id=":2895878688_0_1" index="1" disallow="tram rail_urban rail rail_electric rail_fast ship container cable_car subway aircraft wheelchair scooter drone" speed="16.67" length="5.23" shape="487.41,172.89 487.14,178.16"/>
        <lane id=":2895878688_0_2" index="2" disallow="tram rail_urban rail rail_electric rail_fast ship container cable_car subway aircraft wheelchair scooter drone" speed="16.67" length="5.23" shape="484.22,172.77 483.95,177.95"/>
        <lane id=":2895878688_0_3" index="3" disallow="tram rail_urban rail rail_electric rail_fast ship container cable_car subway aircraft wheelchair scooter drone" speed="16.67" length="5.23" shape="481.02,172.64 480.75,177.75"/>
    </edge>
    <edge id=":2895878690_0" function="internal">
        <lane id=":2895878690_0_0" index="0" disallow="tram rail_urban rail rail_electric rail_fast ship container cable_car subway aircraft wheelchair scooter drone" speed="16.67" length="5.07" shape="497.87,190.64 502.97,190.83"/>
        <lane id=":2895878690_0_1" index="1" disallow="tram rail_urban rail rail_electric rail_fast ship container cable_car subway aircraft wheelchair scooter drone" speed="16.67" length="5.07" shape="497.79,193.84 502.82,194.02"/>
    </edge>
    <edge id=":2895878691_0" function="internal">
        <lane id=":2895878691_0_0" index="0" disallow="tram rail_urban rail rail_electric rail_fast ship container cable_car subway aircraft wheelchair scooter drone" speed="7.08" length="11.21" shape="490.09,182.16 490.22,185.78 491.11,188.40 492.78,189.99 495.23,190.57"/>
    </edge>
    <edge id=":2895878691_1" function="internal">
        <lane id=":2895878691_1_0" index="0" disallow="tram rail_urban rail rail_electric rail_fast ship container cable_car subway aircraft wheelchair scooter drone" speed="16.67" length="16.58" shape="490.09,182.16 489.18,198.62"/>
        <lane id=":2895878691_1_1" index="1" disallow="tram rail_urban rail rail_electric rail_fast ship container cable_car subway aircraft wheelchair scooter drone" speed="16.67" length="16.58" shape="486.90,181.95 485.98,198.48"/>
        <lane id=":2895878691_1_2" index="2" disallow="tram rail_urban rail rail_electric rail_fast ship container cable_car subway aircraft wheelchair scooter drone" speed="16.67" length="16.58" shape="483.71,181.75 482.78,198.34"/>
        <lane id=":2895878691_1_3" index="3" disallow="tram rail_urban rail rail_electric rail_fast ship container cable_car subway aircraft wheelchair scooter drone" speed="16.67" length="16.58" shape="480.51,181.55 479.59,198.20"/>
    </edge>
    <edge id=":2895878691_5" function="internal">
        <lane id=":2895878691_5_0" index="0" disallow="tram rail_urban rail rail_electric rail_fast ship container cable_car subway aircraft wheelchair scooter drone" speed="16.67" length="17.29" shape="478.38,187.04 483.43,187.59 486.80,188.75 490.18,189.94 495.23,190.57"/>
        <lane id=":2895878691_5_1" index="1" disallow="tram rail_urban rail rail_electric rail_fast ship container cable_car subway aircraft wheelchair scooter drone" speed="16.67" length="17.29" shape="478.35,190.24 483.39,190.79 486.75,191.95 490.11,193.14 495.15,193.77"/>
    </edge>
    <edge id=":2895878691_7" function="internal">
        <lane id=":2895878691_7_0" index="0" disallow="tram rail_urban rail rail_electric rail_fast ship container cable_car subway aircraft wheelchair scooter drone" speed="5.97" length="7.63" shape="478.31,193.44 480.35,193.76 481.77,194.69 482.58,196.21 482.78,198.34"/>
        <lane id=":2895878691_7_1" index="1" disallow="tram rail_urban rail rail_electric rail_fast ship container cable_car subway aircraft wheelchair scooter drone" speed="3.74" length="2.34" shape="478.28,196.64 478.88,196.74 479.29,197.03 479.53,197.52 479.59,198.20"/>
    </edge>
    <edge id=":2895878692_0" function="internal">
        <lane id=":2895878692_0_0" index="0" disallow="tram rail_urban rail rail_electric rail_fast ship container cable_car subway aircraft wheelchair scooter drone" speed="16.67" length="5.20" shape="502.20,210.75 496.94,210.48"/>
        <lane id=":2895878692_0_1" index="1" disallow="tram rail_urban rail rail_electric rail_fast ship container cable_car subway aircraft wheelchair scooter drone" speed="16.67" length="5.20" shape="502.34,207.56 497.13,207.28"/>
        <lane id=":2895878692_0_2" index="2" disallow="tram rail_urban rail rail_electric rail_fast ship container cable_car subway aircraft wheelchair scooter drone" speed="16.67" length="5.20" shape="502.49,204.36 497.32,204.09"/>
        <lane id=":2895878692_0_3" index="3" disallow="tram rail_urban rail rail_electric rail_fast ship container cable_car subway aircraft wheelchair scooter drone" speed="16.67" length="5.20" shape="502.63,201.16 497.51,200.89"/>
    </edge>
    <edge id=":2895878693_0" function="internal">
        <lane id=":2895878693_0_0" index="0" disallow="tram rail_urban rail rail_electric rail_fast ship container cable_car subway aircraft wheelchair scooter drone" speed="7.14" length="11.41" shape="494.09,210.31 490.36,210.44 487.68,211.34 486.05,213.01 485.46,215.46"/>
    </edge>
    <edge id=":2895878693_1" function="internal">
        <lane id=":2895878693_1_0" index="0" disallow="tram rail_urban rail rail_electric rail_fast ship container cable_car subway aircraft wheelchair scooter drone" speed="16.67" length="16.31" shape="494.09,210.31 477.88,209.44"/>
        <lane id=":2895878693_1_1" index="1" disallow="tram rail_urban rail rail_electric rail_fast ship container cable_car subway aircraft wheelchair scooter drone" speed="16.67" length="16.31" shape="494.28,207.11 478.02,206.24"/>
        <lane id=":2895878693_1_2" index="2" disallow="tram rail_urban rail rail_electric rail_fast ship container cable_car subway aircraft wheelchair scooter drone" speed="16.67" length="16.31" shape="494.47,203.92 478.16,203.04"/>
        <lane id=":2895878693_1_3" index="3" disallow="tram rail_urban rail rail_electric rail_fast ship container cable_car subway aircraft wheelchair scooter drone" speed="16.67" length="16.31" shape="494.66,200.72 478.29,199.85"/>
    </edge>
    <edge id=":2895878693_5" function="internal">
        <lane id=":2895878693_5_0" index="0" disallow="tram rail_urban rail rail_electric rail_fast ship container cable_car subway aircraft wheelchair scooter drone" speed="16.67" length="17.17" shape="489.17,198.82 488.46,203.81 487.25,207.14 486.07,210.46 485.46,215.46"/>
        <lane id=":2895878693_5_1" index="1" disallow="tram rail_urban rail rail_electric rail_fast ship container cable_car subway aircraft wheelchair scooter drone" speed="16.67" length="17.17" shape="485.97,198.68 485.26,203.69 484.05,207.03 482.87,210.37 482.26,215.39"/>
    </edge>
    <edge id=":2895878693_7" function="internal">
        <lane id=":2895878693_7_0" index="0" disallow="tram rail_urban rail rail_electric rail_fast ship container cable_car subway aircraft wheelchair scooter drone" speed="5.94" length="7.35" shape="482.77,198.54 482.41,200.58 481.52,202.01 480.10,202.83 478.16,203.04"/>
        <lane id=":2895878693_7_1" index="1" disallow="tram rail_urban rail rail_electric rail_fast ship container cable_car subway aircraft wheelchair scooter drone" speed="3.69" length="2.20" shape="479.58,198.40 479.47,199.05 479.22,199.51 478.83,199.78 478.29,199.85"/>
    </edge>
    <edge id=":2895878694_0" function="internal">
        <lane id=":2895878694_0_0" index="0" disallow="tram rail_urban rail rail_electric rail_fast ship container cable_car subway aircraft wheelchair scooter drone" speed="16.67" length="5.23" shape="485.38,219.23 485.19,224.49"/>
        <lane id=":2895878694_0_1" index="1" disallow="tram rail_urban rail rail_electric rail_fast ship container cable_car subway aircraft wheelchair scooter drone" speed="16.67" length="5.23" shape="482.18,219.15 482.00,224.34"/>
    </edge>
    <edge id=":2915037173_0" function="internal">
        <lane id=":2915037173_0_0" index="0" allow="pedestrian delivery bicycle" speed="11.11" length="9.52" shape="400.35,202.12 397.62,202.24 395.83,202.92 394.14,204.05 391.71,205.52"/>
    </edge>
    <edge id=":2915037173_1" function="internal">
        <lane id=":2915037173_1_0" index="0" disallow="tram rail_urban rail rail_electric rail_fast ship container cable_car subway aircraft wheelchair scooter drone" speed="16.67" length="9.52" shape="400.35,202.12 390.86,201.75"/>
        <lane id=":2915037173_1_1" index="1" disallow="tram rail_urban rail rail_electric rail_fast ship container cable_car subway aircraft wheelchair scooter drone" speed="16.67" length="9.52" shape="400.52,198.92 390.99,198.55"/>
    </edge>
    <edge id=":2915037174_0" function="internal">
        <lane id=":2915037174_0_0" index="0" allow="pedestrian delivery bicycle" speed="11.11" length="8.68" shape="308.18,202.22 306.18,200.57 304.78,199.35 303.23,198.55 300.78,198.17"/>
    </edge>
    <edge id=":2915037174_1" function="internal">
        <lane id=":2915037174_1_0" index="0" disallow="tram rail_urban rail rail_electric rail_fast ship container cable_car subway aircraft wheelchair scooter drone" speed="16.67" length="8.68" shape="309.47,198.51 300.78,198.17"/>
        <lane id=":2915037174_1_1" index="1" disallow="tram rail_urban rail rail_electric rail_fast ship container cable_car subway aircraft wheelchair scooter drone" speed="16.67" length="8.68" shape="309.60,195.31 300.95,194.97"/>
    </edge>
    <edge id=":2929872135_0" function="internal">
        <lane id=":2929872135_0_0" index="0" allow="pedestrian delivery bicycle" speed="5.56" length="7.82" shape="455.99,136.70 455.61,138.82 454.65,140.29 453.10,141.13 450.96,141.33"/>
    </edge>
    <edge id=":2929872135_1" function="internal">
        <lane id=":2929872135_1_0" index="0" allow="pedestrian delivery bicycle" speed="3.90" length="2.61" shape="451.12,138.13 451.83,138.07 452.35,137.79 452.67,137.30 452.79,136.59"/>
    </edge>
    <edge id=":2931728285_0" function="internal">
        <lane id=":2931728285_0_0" index="0" allow="bicycle" speed="5.56" length="0.30" width="1.00" shape="819.42,193.17 819.12,193.15"/>
    </edge>
    <edge id=":2931728285_1" function="internal">
        <lane id=":2931728285_1_0" index="0" allow="bicycle" speed="5.56" length="0.30" width="1.00" shape="819.17,192.15 819.47,192.17"/>
    </edge>
    <edge id=":320667418_0" function="internal">
        <lane id=":320667418_0_0" index="0" disallow="tram rail_urban rail rail_electric rail_fast ship container cable_car subway aircraft wheelchair scooter drone" speed="16.67" length="16.80" shape="477.68,209.43 472.80,208.72 469.56,207.46 466.33,206.20 461.45,205.44"/>
        <lane id=":320667418_0_1" index="1" disallow="tram rail_urban rail rail_electric rail_fast ship container cable_car subway aircraft wheelchair scooter drone" speed="16.67" length="16.80" shape="477.82,206.23 472.94,205.52 469.72,204.27 466.49,203.00 461.61,202.25"/>
    </edge>
    <edge id=":320667418_2" function="internal">
        <lane id=":320667418_2_0" index="0" disallow="tram rail_urban rail rail_electric rail_fast ship container cable_car subway aircraft wheelchair scooter drone" speed="5.92" length="7.25" shape="477.96,203.04 476.02,202.67 474.66,201.76 473.88,200.32 473.67,198.33"/>
        <lane id=":320667418_2_1" index="1" disallow="tram rail_urban rail rail_electric rail_fast ship container cable_car subway aircraft wheelchair scooter drone" speed="3.65" length="2.12" shape="478.09,199.84 477.54,199.73 477.15,199.46 476.92,199.03 476.87,198.44"/>
    </edge>
    <edge id=":320667418_4" function="internal">
        <lane id=":320667418_4_0" index="0" disallow="tram rail_urban rail rail_electric rail_fast ship container cable_car subway aircraft wheelchair scooter drone" speed="7.47" length="11.94" shape="466.83,214.69 466.56,210.75 465.58,207.90 463.88,206.13 461.45,205.44"/>
    </edge>
    <edge id=":320667418_5" function="internal">
        <lane id=":320667418_5_0" index="0" disallow="tram rail_urban rail rail_electric rail_fast ship container cable_car subway aircraft wheelchair scooter drone" speed="16.67" length="16.52" shape="466.83,214.69 467.27,198.10"/>
        <lane id=":320667418_5_1" index="1" disallow="tram rail_urban rail rail_electric rail_fast ship container cable_car subway aircraft wheelchair scooter drone" speed="16.67" length="16.52" shape="470.03,214.76 470.47,198.22"/>
        <lane id=":320667418_5_2" index="2" disallow="tram rail_urban rail rail_electric rail_fast ship container cable_car subway aircraft wheelchair scooter drone" speed="16.67" length="16.52" shape="473.23,214.83 473.67,198.33"/>
        <lane id=":320667418_5_3" index="3" disallow="tram rail_urban rail rail_electric rail_fast ship container cable_car subway aircraft wheelchair scooter drone" speed="16.67" length="16.52" shape="476.42,214.90 476.87,198.44"/>
    </edge>
    <edge id=":320667420_0" function="internal">
        <lane id=":320667420_0_0" index="0" disallow="pedestrian tram rail_urban rail rail_electric rail_fast ship container cable_car subway aircraft wheelchair scooter drone" speed="7.50" length="12.01" shape="461.92,186.87 465.87,186.55 468.72,185.53 470.48,183.79 471.15,181.33"/>
    </edge>
    <edge id=":320667420_1" function="internal">
        <lane id=":320667420_1_0" index="0" disallow="pedestrian tram rail_urban rail rail_electric rail_fast ship container cable_car subway aircraft wheelchair scooter drone" speed="16.67" length="16.26" shape="461.92,186.87 478.18,187.03"/>
        <lane id=":320667420_1_1" index="1" disallow="pedestrian tram rail_urban rail rail_electric rail_fast ship container cable_car subway aircraft wheelchair scooter drone" speed="16.67" length="16.26" shape="461.89,190.07 478.15,190.23"/>
        <lane id=":320667420_1_2" index="2" disallow="pedestrian tram rail_urban rail rail_electric rail_fast ship container cable_car subway aircraft wheelchair scooter drone" speed="16.67" length="16.26" shape="461.85,193.27 478.11,193.43"/>
        <lane id=":320667420_1_3" index="3" disallow="pedestrian tram rail_urban rail rail_electric rail_fast ship container cable_car subway aircraft wheelchair scooter drone" speed="16.67" length="16.26" shape="461.82,196.47 478.08,196.63"/>
    </edge>
    <edge id=":320667420_5" function="internal">
        <lane id=":320667420_5_0" index="0" disallow="tram rail_urban rail rail_electric rail_fast ship container cable_car subway aircraft wheelchair scooter drone" speed="16.67" length="17.10" shape="467.28,197.90 467.96,192.92 469.19,189.62 470.43,186.31 471.15,181.33"/>
        <lane id=":320667420_5_1" index="1" disallow="tram rail_urban rail rail_electric rail_fast ship container cable_car subway aircraft wheelchair scooter drone" speed="16.67" length="17.10" shape="470.48,198.02 471.16,193.04 472.39,189.74 473.63,186.44 474.35,181.47"/>
    </edge>
    <edge id=":320667420_7" function="internal">
        <lane id=":320667420_7_0" index="0" disallow="tram rail_urban rail rail_electric rail_fast ship container cable_car subway aircraft wheelchair scooter drone" speed="5.98" length="7.32" shape="473.68,198.13 474.02,196.06 474.87,194.59 476.23,193.71 478.11,193.43"/>
        <lane id=":320667420_7_1" index="1" disallow="tram rail_urban rail rail_electric rail_fast ship container cable_car subway aircraft wheelchair scooter drone" speed="3.75" length="2.26" shape="476.87,198.24 476.97,197.53 477.20,197.03 477.57,196.73 478.08,196.63"/>
    </edge>
    <edge id=":4885551678_0" function="internal">
        <lane id=":4885551678_0_0" index="0" allow="pedestrian delivery bicycle" speed="4.17" length="0.30" shape="416.69,139.66 416.40,139.64"/>
    </edge>
    <edge id=":4885551678_1" function="internal">
        <lane id=":4885551678_1_0" index="0" allow="pedestrian delivery bicycle" speed="4.17" length="0.30" shape="416.55,136.45 416.85,136.46"/>
    </edge>
    <edge id=":4885551679_0" function="internal">
        <lane id=":4885551679_0_0" index="0" allow="pedestrian delivery bicycle" speed="2.78" length="4.67" shape="338.71,136.06 337.54,135.21 337.18,134.39 337.62,133.61 338.85,132.86"/>
    </edge>
    <edge id=":4885551680_0" function="internal">
        <lane id=":4885551680_0_0" index="0" allow="pedestrian delivery bicycle" speed="2.78" length="6.20" shape="357.24,136.89 351.04,136.62"/>
    </edge>
    <edge id=":4885551680_1" function="internal">
        <lane id=":4885551680_1_0" index="0" allow="pedestrian delivery bicycle" speed="2.78" length="7.77" shape="357.24,136.89 355.89,136.44 354.98,135.21 354.49,133.22 354.43,130.45"/>
    </edge>
    <edge id=":4885551680_2" function="internal">
        <lane id=":4885551680_2_0" index="0" allow="pedestrian delivery bicycle" speed="2.78" length="4.67" shape="357.24,136.89 356.07,136.04 355.71,135.22 356.15,134.44 357.38,133.70"/>
    </edge>
    <edge id=":4885551680_3" function="internal">
        <lane id=":4885551680_3_0" index="0" allow="pedestrian delivery bicycle" speed="2.78" length="5.01" shape="351.18,133.42 352.55,133.29 353.54,132.75 354.17,131.80 354.43,130.45"/>
    </edge>
    <edge id=":4885551680_4" function="internal">
        <lane id=":4885551680_4_0" index="0" allow="pedestrian delivery bicycle" speed="2.78" length="6.20" shape="351.18,133.42 357.38,133.70"/>
    </edge>
    <edge id=":4885551680_5" function="internal">
        <lane id=":4885551680_5_0" index="0" allow="pedestrian delivery bicycle" speed="2.78" length="4.67" shape="351.18,133.42 352.35,134.27 352.71,135.09 352.27,135.87 351.04,136.62"/>
    </edge>
    <edge id=":4885551683_0" function="internal">
        <lane id=":4885551683_0_0" index="0" allow="pedestrian delivery bicycle" speed="2.78" length="6.22" shape="410.93,139.41 404.72,139.12"/>
    </edge>
    <edge id=":4885551683_1" function="internal">
        <lane id=":4885551683_1_0" index="0" allow="pedestrian delivery bicycle" speed="2.78" length="4.67" shape="410.93,139.41 409.76,138.55 409.40,137.74 409.84,136.95 411.07,136.21"/>
    </edge>
    <edge id=":4885551683_2" function="internal">
        <lane id=":4885551683_2_0" index="0" allow="pedestrian delivery bicycle" speed="2.78" length="5.00" shape="408.12,132.97 408.24,134.33 408.78,135.33 409.72,135.95 411.07,136.21"/>
    </edge>
    <edge id=":4885551683_3" function="internal">
        <lane id=":4885551683_3_0" index="0" allow="pedestrian delivery bicycle" speed="2.78" length="7.76" shape="408.12,132.97 407.79,135.71 407.11,137.66 406.09,138.79 404.72,139.12"/>
    </edge>
    <edge id=":4885551683_4" function="internal">
        <lane id=":4885551683_4_0" index="0" allow="pedestrian delivery bicycle" speed="2.78" length="6.21" shape="404.87,135.92 411.07,136.21"/>
    </edge>
    <edge id=":4885551683_5" function="internal">
        <lane id=":4885551683_5_0" index="0" allow="pedestrian delivery bicycle" speed="2.78" length="4.67" shape="404.87,135.92 406.03,136.78 406.39,137.60 405.95,138.38 404.72,139.12"/>
    </edge>
    <edge id=":6655680628_0" function="internal">
        <lane id=":6655680628_0_0" index="0" allow="pedestrian delivery bicycle" speed="5.56" length="5.00" shape="435.83,140.59 430.83,140.34"/>
    </edge>
    <edge id=":6655680628_1" function="internal">
        <lane id=":6655680628_1_0" index="0" allow="pedestrian delivery bicycle" speed="3.65" length="4.67" shape="435.83,140.59 434.67,139.73 434.31,138.91 434.74,138.13 435.98,137.39"/>
    </edge>
    <edge id=":6655680628_2" function="internal">
        <lane id=":6655680628_2_0" index="0" allow="pedestrian delivery bicycle" speed="5.56" length="5.00" shape="430.99,137.15 435.98,137.39"/>
    </edge>
    <edge id=":6655680628_3" function="internal">
        <lane id=":6655680628_3_0" index="0" allow="pedestrian delivery bicycle" speed="3.65" length="4.67" shape="430.99,137.15 432.15,138.01 432.51,138.82 432.07,139.60 430.83,140.34"/>
    </edge>
    <edge id=":695329178_0" function="internal">
        <lane id=":695329178_0_0" index="0" allow="bicycle" speed="2.04" length="1.46" width="1.00" shape="1094.23,198.61 1094.53,198.95 1094.59,199.22 1094.40,199.43 1093.98,199.58"/>
    </edge>
    <edge id=":7137016892_0" function="internal">
        <lane id=":7137016892_0_0" index="0" allow="pedestrian delivery bicycle" speed="5.11" length="5.24" shape="522.38,257.33 520.89,257.44 519.80,257.96 519.12,258.90 518.86,260.25"/>
    </edge>
    <edge id=":7137016892_1" function="internal">
        <lane id=":7137016892_1_0" index="0" allow="pedestrian delivery bicycle" speed="5.56" length="10.65" shape="522.38,257.33 519.48,256.73 517.56,255.35 516.62,253.18 516.65,250.22"/>
    </edge>
    <edge id=":7137016892_2" function="internal">
        <lane id=":7137016892_2_0" index="0" allow="pedestrian delivery bicycle" speed="3.65" length="4.67" shape="522.38,257.33 521.23,256.46 520.88,255.64 521.32,254.86 522.57,254.13"/>
    </edge>
    <edge id=":7137016892_3" function="internal">
        <lane id=":7137016892_3_0" index="0" allow="pedestrian delivery bicycle" speed="4.94" length="5.12" shape="519.82,250.72 519.80,252.14 520.25,253.18 521.17,253.85 522.57,254.13"/>
    </edge>
    <edge id=":7137016892_4" function="internal">
        <lane id=":7137016892_4_0" index="0" allow="pedestrian delivery bicycle" speed="5.56" length="9.59" shape="519.82,250.72 519.38,253.53 519.13,255.46 518.99,257.41 518.86,260.25"/>
    </edge>
    <edge id=":7137016892_5" function="internal">
        <lane id=":7137016892_5_0" index="0" allow="pedestrian delivery bicycle" speed="3.65" length="4.67" shape="519.82,250.72 518.84,251.78 517.99,252.05 517.26,251.53 516.65,250.22"/>
    </edge>
    <edge id=":7137016892_6" function="internal">
        <lane id=":7137016892_6_0" index="0" allow="pedestrian delivery bicycle" speed="5.56" length="9.96" shape="515.66,260.12 515.79,257.17 515.95,255.15 516.20,253.14 516.65,250.22"/>
    </edge>
    <edge id=":7137016892_7" function="internal">
        <lane id=":7137016892_7_0" index="0" allow="pedestrian delivery bicycle" speed="5.56" length="10.46" shape="515.66,260.12 516.19,257.35 517.52,255.43 519.65,254.36 522.57,254.13"/>
    </edge>
    <edge id=":7137016892_8" function="internal">
        <lane id=":7137016892_8_0" index="0" allow="pedestrian delivery bicycle" speed="3.65" length="4.67" shape="515.66,260.12 516.51,258.95 517.32,258.59 518.11,259.02 518.86,260.25"/>
    </edge>
    <edge id=":7310175330_0" function="internal">
        <lane id=":7310175330_0_0" index="0" allow="pedestrian delivery bicycle" speed="3.65" length="4.67" shape="703.81,239.46 704.98,240.29 705.36,241.11 704.93,241.89 703.71,242.66"/>
    </edge>
    <edge id=":7835974822_0" function="internal">
        <lane id=":7835974822_0_0" index="0" allow="pedestrian delivery bicycle" speed="3.65" length="4.67" shape="593.26,161.88 594.43,162.74 594.79,163.55 594.36,164.33 593.12,165.08"/>
    </edge>
    <edge id=":7835974828_0" function="internal">
        <lane id=":7835974828_0_0" index="0" allow="bicycle" speed="5.56" length="5.02" width="1.00" shape="564.88,182.18 559.86,181.97"/>
    </edge>
    <edge id=":7835974828_1" function="internal">
        <lane id=":7835974828_1_0" index="0" allow="bicycle" speed="2.04" length="1.46" width="1.00" shape="564.88,182.18 564.51,181.92 564.40,181.66 564.53,181.42 564.92,181.19"/>
    </edge>
    <edge id=":7835974828_2" function="internal">
        <lane id=":7835974828_2_0" index="0" allow="bicycle" speed="5.56" length="5.02" width="1.00" shape="559.90,180.97 564.92,181.19"/>
    </edge>
    <edge id=":7835974828_3" function="internal">
        <lane id=":7835974828_3_0" index="0" allow="bicycle" speed="2.04" length="1.46" width="1.00" shape="559.90,180.97 560.27,181.23 560.38,181.49 560.25,181.73 559.86,181.97"/>
    </edge>
    <edge id=":7835974833_0" function="internal">
        <lane id=":7835974833_0_0" index="0" allow="pedestrian delivery bicycle" speed="5.56" length="7.28" shape="579.52,162.78 577.67,161.69 576.46,160.81 575.47,159.70 574.26,157.92"/>
    </edge>
    <edge id=":7835974833_1" function="internal">
        <lane id=":7835974833_1_0" index="0" allow="pedestrian delivery bicycle" speed="3.65" length="1.44" shape="579.52,162.78 578.88,161.49"/>
    </edge>
    <edge id=":7835974833_4" function="internal">