<?xml version="1.0" encoding="UTF-8"?>

<!-- generated on 2024-09-03 01:38:45 by Eclipse SUMO netconvert Version 1.20.0
<configuration xmlns:xsi="http://www.w3.org/2001/XMLSchema-instance" xsi:noNamespaceSchemaLocation="http://sumo.dlr.de/xsd/netconvertConfiguration.xsd">

    <input>
        <osm-files value="train_files/intersection/hard/osm_files/map(66).osm"/>
    </input>

    <output>
        <output-file value="train_files/intersection/hard/outputs/map(66)_dict/map(66)/map(66).net.xml"/>
    </output>

    <projection>
        <proj.utm value="true"/>
    </projection>

    <building_defaults>
        <default.junctions.keep-clear value="false"/>
    </building_defaults>

</configuration>
-->

<net version="1.20" junctionCornerDetail="5" limitTurnSpeed="5.50" xmlns:xsi="http://www.w3.org/2001/XMLSchema-instance" xsi:noNamespaceSchemaLocation="http://sumo.dlr.de/xsd/net_file.xsd">

    <location netOffset="-432034.00,-5416513.61" convBoundary="0.00,0.00,446.12,406.40" origBoundary="2.072634,48.897872,2.078718,48.901505" projParameter="+proj=utm +zone=31 +ellps=WGS84 +datum=WGS84 +units=m +no_defs"/>

    <type id="highway.footway" priority="1" numLanes="1" speed="2.78" allow="pedestrian" oneway="1" width="2.00"/>
    <type id="highway.path" priority="1" numLanes="1" speed="5.56" allow="pedestrian bicycle" oneway="0" width="2.00"/>
    <type id="highway.primary" priority="12" numLanes="2" speed="27.78" disallow="tram rail_urban rail rail_electric rail_fast ship container cable_car subway aircraft wheelchair scooter drone" oneway="0"/>
    <type id="highway.primary_link" priority="7" numLanes="1" speed="22.22" disallow="tram rail_urban rail rail_electric rail_fast ship container cable_car subway aircraft wheelchair scooter drone" oneway="0"/>
    <type id="highway.tertiary" priority="10" numLanes="1" speed="22.22" disallow="tram rail_urban rail rail_electric rail_fast ship container cable_car subway aircraft wheelchair scooter drone" oneway="0"/>

    <edge id=":1831251388_0" function="internal">
        <lane id=":1831251388_0_0" index="0" disallow="tram rail_urban rail rail_electric rail_fast ship container cable_car subway aircraft wheelchair scooter drone" speed="7.06" length="8.86" shape="103.05,180.15 100.60,180.56 98.72,181.53 97.40,183.07 96.66,185.18"/>
    </edge>
    <edge id=":1831251388_1" function="internal">
        <lane id=":1831251388_1_0" index="0" disallow="tram rail_urban rail rail_electric rail_fast ship container cable_car subway aircraft wheelchair scooter drone" speed="12.50" length="12.90" shape="103.05,180.15 99.63,180.26 96.60,180.22 93.58,179.97 90.20,179.48"/>
    </edge>
    <edge id=":1831251388_2" function="internal">
        <lane id=":1831251388_2_0" index="0" disallow="tram rail_urban rail rail_electric rail_fast ship container cable_car subway aircraft wheelchair scooter drone" speed="12.50" length="10.47" shape="99.23,175.22 98.33,178.14 97.74,180.15 97.26,182.18 96.66,185.18"/>
        <lane id=":1831251388_2_1" index="1" disallow="tram rail_urban rail rail_electric rail_fast ship container cable_car subway aircraft wheelchair scooter drone" speed="12.50" length="10.47" shape="96.17,174.28 95.24,177.29 94.64,179.37 94.14,181.47 93.51,184.57"/>
    </edge>
    <edge id=":1831251388_4" function="internal">
        <lane id=":1831251388_4_0" index="0" disallow="tram rail_urban rail rail_electric rail_fast ship container cable_car subway aircraft wheelchair scooter drone" speed="6.71" length="8.73" shape="96.17,174.28 95.12,176.82 93.77,178.54 92.13,179.42 90.20,179.48"/>
    </edge>
    <edge id=":1831251426_0" function="internal">
        <lane id=":1831251426_0_0" index="0" disallow="tram rail_urban rail rail_electric rail_fast ship container cable_car subway aircraft wheelchair scooter drone" speed="12.50" length="4.17" shape="111.44,173.94 114.89,176.27"/>
    </edge>
    <edge id=":1831251570_0" function="internal">
        <lane id=":1831251570_0_0" index="0" disallow="tram rail_urban rail rail_electric rail_fast ship container cable_car subway aircraft wheelchair scooter drone" speed="12.50" length="0.36" shape="72.14,151.93 72.19,151.92 72.23,151.91 72.26,151.89 72.31,151.87"/>
        <lane id=":1831251570_0_1" index="1" disallow="tram rail_urban rail rail_electric rail_fast ship container cable_car subway aircraft wheelchair scooter drone" speed="12.50" length="0.36" shape="73.11,154.98 73.27,154.93 73.37,154.90 73.47,154.86 73.62,154.79"/>
    </edge>
    <edge id=":249841800_0" function="internal">
        <lane id=":249841800_0_0" index="0" disallow="tram rail_urban rail rail_electric rail_fast ship container cable_car subway aircraft wheelchair scooter drone" speed="13.89" length="10.37" shape="86.17,203.27 86.09,200.32 85.86,198.31 85.41,196.33 84.64,193.47"/>
        <lane id=":249841800_0_1" index="1" disallow="tram rail_urban rail rail_electric rail_fast ship container cable_car subway aircraft wheelchair scooter drone" speed="13.89" length="10.37" shape="89.37,203.24 89.28,200.06 89.04,197.88 88.56,195.74 87.74,192.65"/>
    </edge>
    <edge id=":249841800_2" function="internal">
        <lane id=":249841800_2_0" index="0" disallow="tram rail_urban rail rail_electric rail_fast ship container cable_car subway aircraft wheelchair scooter drone" speed="3.65" length="4.41" shape="89.37,203.24 90.15,202.03 90.95,201.63 91.75,202.02 92.42,202.99"/>
    </edge>
    <edge id=":249841800_4" function="internal">
        <lane id=":249841800_4_0" index="0" disallow="tram rail_urban rail rail_electric rail_fast ship container cable_car subway aircraft wheelchair scooter drone" speed="3.65" length="0.26" shape="92.42,202.99 92.57,203.21"/>
    </edge>
    <edge id=":249841800_3" function="internal">
        <lane id=":249841800_3_0" index="0" disallow="tram rail_urban rail rail_electric rail_fast ship container cable_car subway aircraft wheelchair scooter drone" speed="13.19" length="3.21" shape="94.25,200.48 92.57,203.21"/>
    </edge>
    <edge id=":249841815_0" function="internal">
        <lane id=":249841815_0_0" index="0" disallow="tram rail_urban rail rail_electric rail_fast ship container cable_car subway aircraft wheelchair scooter drone" speed="12.13" length="8.28" shape="70.51,174.12 68.20,173.22 66.57,172.54 64.93,172.28 62.59,172.68"/>
    </edge>
    <edge id=":249841815_1" function="internal">
        <lane id=":249841815_1_0" index="0" disallow="tram rail_urban rail rail_electric rail_fast ship container cable_car subway aircraft wheelchair scooter drone" speed="12.50" length="8.30" shape="70.49,170.14 62.59,172.68"/>
    </edge>
    <edge id=":249841818_0" function="internal">
        <lane id=":249841818_0_0" index="0" disallow="pedestrian tram rail_urban rail rail_electric rail_fast ship container cable_car subway aircraft wheelchair scooter drone" speed="15.97" length="0.10" shape="104.57,144.98 104.57,144.98"/>
    </edge>
    <edge id=":249841829_0" function="internal">
        <lane id=":249841829_0_0" index="0" disallow="tram rail_urban rail rail_electric rail_fast ship container cable_car subway aircraft wheelchair scooter drone" speed="13.89" length="6.74" shape="84.53,192.79 83.47,186.00"/>
        <lane id=":249841829_0_1" index="1" disallow="tram rail_urban rail rail_electric rail_fast ship container cable_car subway aircraft wheelchair scooter drone" speed="13.89" length="6.74" shape="87.67,192.16 86.65,185.63"/>
    </edge>
    <edge id=":249841831_0" function="internal">
        <lane id=":249841831_0_0" index="0" disallow="tram rail_urban rail rail_electric rail_fast ship container cable_car subway aircraft wheelchair scooter drone" speed="12.50" length="13.07" shape="84.03,147.03 87.60,145.66 90.06,144.76 92.45,143.73 95.82,141.94"/>
        <lane id=":249841831_0_1" index="1" disallow="tram rail_urban rail rail_electric rail_fast ship container cable_car subway aircraft wheelchair scooter drone" speed="12.50" length="13.07" shape="85.23,149.99 88.91,148.58 91.45,147.65 93.92,146.57 97.39,144.73"/>
    </edge>
    <edge id=":249841831_2" function="internal">
        <lane id=":249841831_2_0" index="0" disallow="tram rail_urban rail rail_electric rail_fast ship container cable_car subway aircraft wheelchair scooter drone" speed="12.50" length="11.66" shape="88.51,151.72 90.19,148.38 91.32,145.97 92.86,143.99 95.82,141.94"/>
        <lane id=":249841831_2_1" index="1" disallow="tram rail_urban rail rail_electric rail_fast ship container cable_car subway aircraft wheelchair scooter drone" speed="12.50" length="11.66" shape="91.28,153.32 92.70,150.42 93.60,148.28 94.87,146.52 97.39,144.73"/>
    </edge>
    <edge id=":249841832_0" function="internal">
        <lane id=":249841832_0_0" index="0" disallow="tram rail_urban rail rail_electric rail_fast ship container cable_car subway aircraft wheelchair scooter drone" speed="12.50" length="0.23" shape="115.81,152.35 115.51,152.53"/>
        <lane id=":249841832_0_1" index="1" disallow="tram rail_urban rail rail_electric rail_fast ship container cable_car subway aircraft wheelchair scooter drone" speed="12.50" length="0.23" shape="114.07,149.66 113.97,149.72"/>
    </edge>
    <edge id=":415254600_0" function="internal">
        <lane id=":415254600_0_0" index="0" disallow="tram rail_urban rail rail_electric rail_fast ship container cable_car subway aircraft wheelchair scooter drone" speed="7.02" length="8.26" shape="102.94,163.12 102.65,165.14 103.04,166.98 104.12,168.67 105.90,170.19"/>
    </edge>
    <edge id=":415254600_1" function="internal">
        <lane id=":415254600_1_0" index="0" disallow="tram rail_urban rail rail_electric rail_fast ship container cable_car subway aircraft wheelchair scooter drone" speed="12.50" length="9.51" shape="102.94,163.12 100.15,172.21"/>
        <lane id=":415254600_1_1" index="1" disallow="tram rail_urban rail rail_electric rail_fast ship container cable_car subway aircraft wheelchair scooter drone" speed="12.50" length="9.51" shape="99.88,162.18 97.09,171.27"/>
    </edge>
    <edge id=":415254600_3" function="internal">
        <lane id=":415254600_3_0" index="0" disallow="tram rail_urban rail rail_electric rail_fast ship container cable_car subway aircraft wheelchair scooter drone" speed="12.50" length="9.78" shape="98.89,163.43 101.09,165.29 102.37,166.84 103.66,168.38 105.90,170.19"/>
    </edge>
    <edge id=":415254600_4" function="internal">
        <lane id=":415254600_4_0" index="0" disallow="tram rail_urban rail rail_electric rail_fast ship container cable_car subway aircraft wheelchair scooter drone" speed="5.91" length="5.49" shape="97.03,166.04 97.55,166.73 97.73,167.83 97.58,169.35 97.09,171.27"/>
    </edge>
    <edge id=":4978406222_0" function="internal">
        <lane id=":4978406222_0_0" index="0" disallow="tram rail_urban rail rail_electric rail_fast ship container cable_car subway aircraft wheelchair scooter drone" speed="13.89" length="0.60" shape="84.59,193.28 84.72,193.77"/>
        <lane id=":4978406222_0_1" index="1" disallow="tram rail_urban rail rail_electric rail_fast ship container cable_car subway aircraft wheelchair scooter drone" speed="13.89" length="0.60" shape="87.68,192.46 87.86,193.14"/>
    </edge>
    <edge id=":4978406226_0" function="internal">
        <lane id=":4978406226_0_0" index="0" disallow="tram rail_urban rail rail_electric rail_fast ship container cable_car subway aircraft wheelchair scooter drone" speed="12.50" length="12.20" shape="72.57,151.75 83.91,147.08"/>
        <lane id=":4978406226_0_1" index="1" disallow="tram rail_urban rail rail_electric rail_fast ship container cable_car subway aircraft wheelchair scooter drone" speed="12.50" length="12.20" shape="73.88,154.67 85.11,150.04"/>
    </edge>
    <edge id=":4978406226_2" function="internal">
        <lane id=":4978406226_2_0" index="0" disallow="tram rail_urban rail rail_electric rail_fast ship container cable_car subway aircraft wheelchair scooter drone" speed="10.89" length="10.17" shape="73.88,154.67 76.62,153.41 78.66,152.71 80.73,152.67 83.56,153.43"/>
        <lane id=":4978406226_2_1" index="1" disallow="tram rail_urban rail rail_electric rail_fast ship container cable_car subway aircraft wheelchair scooter drone" speed="10.40" length="9.25" shape="73.88,154.67 76.34,153.99 78.15,154.35 79.98,155.32 82.52,156.45"/>
    </edge>
    <edge id=":4978406227_0" function="internal">
        <lane id=":4978406227_0_0" index="0" disallow="tram rail_urban rail rail_electric rail_fast ship container cable_car subway aircraft wheelchair scooter drone" speed="12.50" length="8.59" shape="83.75,153.49 86.32,154.39 88.04,155.15 89.60,156.18 91.70,157.90"/>
        <lane id=":4978406227_0_1" index="1" disallow="tram rail_urban rail rail_electric rail_fast ship container cable_car subway aircraft wheelchair scooter drone" speed="12.50" length="8.59" shape="82.71,156.52 84.94,157.30 86.44,157.95 87.80,158.84 89.63,160.34"/>
    </edge>
    <edge id=":4978406227_2" function="internal">
        <lane id=":4978406227_2_0" index="0" disallow="tram rail_urban rail rail_electric rail_fast ship container cable_car subway aircraft wheelchair scooter drone" speed="12.50" length="8.52" shape="84.73,159.89 85.60,157.42 86.28,155.76 87.10,154.16 88.41,151.89"/>
        <lane id=":4978406227_2_1" index="1" disallow="tram rail_urban rail rail_electric rail_fast ship container cable_car subway aircraft wheelchair scooter drone" speed="12.50" length="8.52" shape="87.76,160.93 88.56,158.64 89.20,157.09 89.97,155.61 91.18,153.49"/>
    </edge>
    <edge id=":5233155805_0" function="internal">
        <lane id=":5233155805_0_0" index="0" allow="pedestrian bicycle" speed="2.89" length="2.92" width="2.00" shape="159.81,184.29 160.58,184.75 160.86,185.24 160.63,185.75 159.91,186.28"/>
    </edge>
    <edge id=":5233157021_0" function="internal">
        <lane id=":5233157021_0_0" index="0" disallow="tram rail_urban rail rail_electric rail_fast ship container cable_car subway aircraft wheelchair scooter drone" speed="3.65" length="4.67" shape="446.16,184.66 447.34,185.49 447.72,186.30 447.30,187.09 446.08,187.86"/>
    </edge>
    <edge id=":535330494_0" function="internal">
        <lane id=":535330494_0_0" index="0" disallow="pedestrian tram rail_urban rail rail_electric rail_fast ship container cable_car subway aircraft wheelchair scooter drone" speed="12.50" length="0.10" shape="75.61,162.36 75.61,162.36"/>
    </edge>
    <edge id=":535333270_0" function="internal">
        <lane id=":535333270_0_0" index="0" disallow="pedestrian tram rail_urban rail rail_electric rail_fast ship container cable_car subway aircraft wheelchair scooter drone" speed="12.50" length="0.10" shape="106.35,148.86 106.35,148.86"/>
    </edge>
    <edge id=":535344457_0" function="internal">
        <lane id=":535344457_0_0" index="0" disallow="tram rail_urban rail rail_electric rail_fast ship container cable_car subway aircraft wheelchair scooter drone" speed="12.50" length="5.03" shape="118.90,181.01 117.46,180.74 116.51,180.26 115.56,179.82 114.12,179.66"/>
    </edge>
    <edge id=":535344457_1" function="internal">
        <lane id=":535344457_1_0" index="0" disallow="tram rail_urban rail rail_electric rail_fast ship container cable_car subway aircraft wheelchair scooter drone" speed="3.65" length="4.67" shape="118.90,181.01 117.73,180.16 117.36,179.35 117.79,178.57 119.02,177.81"/>
    </edge>
    <edge id=":535344457_2" function="internal">
        <lane id=":535344457_2_0" index="0" disallow="tram rail_urban rail rail_electric rail_fast ship container cable_car subway aircraft wheelchair scooter drone" speed="9.16" length="4.30" shape="115.06,176.39 116.12,177.10 116.90,177.51 117.76,177.72 119.02,177.81"/>
    </edge>
    <edge id=":535345634_0" function="internal">
        <lane id=":535345634_0_0" index="0" allow="pedestrian bicycle" speed="7.87" length="12.39" width="2.00" shape="99.46,189.80 97.76,190.48 96.33,192.45 95.16,195.72 94.28,200.28"/>
    </edge>
    <edge id=":535345634_1" function="internal">
        <lane id=":535345634_1_0" index="0" allow="pedestrian bicycle" speed="2.89" length="2.92" width="2.00" shape="99.46,189.80 98.68,189.35 98.40,188.86 98.62,188.35 99.34,187.80"/>
    </edge>
    <edge id=":535345634_2" function="internal">
        <lane id=":535345634_2_0" index="0" allow="pedestrian bicycle" speed="4.50" length="4.36" width="2.00" shape="96.62,185.37 96.61,186.45 97.06,187.22 97.97,187.67 99.34,187.80"/>
    </edge>
    <edge id=":535345634_3" function="internal">
        <lane id=":535345634_3_0" index="0" disallow="tram rail_urban rail rail_electric rail_fast ship container cable_car subway aircraft wheelchair scooter drone" speed="12.50" length="15.17" shape="96.62,185.37 94.28,200.28"/>
        <lane id=":535345634_3_1" index="1" disallow="tram rail_urban rail rail_electric rail_fast ship container cable_car subway aircraft wheelchair scooter drone" speed="12.50" length="15.17" shape="93.48,184.76 91.11,199.82"/>
    </edge>
    <edge id=":535345872_0" function="internal">
        <lane id=":535345872_0_0" index="0" disallow="tram rail_urban rail rail_electric rail_fast ship container cable_car subway aircraft wheelchair scooter drone" speed="7.84" length="9.31" shape="83.22,183.82 82.66,181.16 81.64,179.07 80.16,177.55 78.23,176.60"/>
    </edge>
    <edge id=":535345872_1" function="internal">
        <lane id=":535345872_1_0" index="0" disallow="tram rail_urban rail rail_electric rail_fast ship container cable_car subway aircraft wheelchair scooter drone" speed="13.89" length="10.80" shape="83.22,183.82 81.95,172.90"/>
        <lane id=":535345872_1_1" index="1" disallow="tram rail_urban rail rail_electric rail_fast ship container cable_car subway aircraft wheelchair scooter drone" speed="13.89" length="10.80" shape="86.40,183.45 85.18,172.91"/>
    </edge>
    <edge id=":535345872_3" function="internal">
        <lane id=":535345872_3_0" index="0" disallow="tram rail_urban rail rail_electric rail_fast ship container cable_car subway aircraft wheelchair scooter drone" speed="13.19" length="12.12" shape="90.00,179.45 86.75,178.85 84.06,178.26 81.39,177.55 78.23,176.60"/>
    </edge>
    <edge id=":535345872_4" function="internal">
        <lane id=":535345872_4_0" index="0" disallow="tram rail_urban rail rail_electric rail_fast ship container cable_car subway aircraft wheelchair scooter drone" speed="7.18" length="8.75" shape="90.00,179.45 88.15,178.77 86.72,177.45 85.73,175.50 85.18,172.91"/>
    </edge>
    <edge id=":535346467_0" function="internal">
        <lane id=":535346467_0_0" index="0" disallow="tram rail_urban rail rail_electric rail_fast ship container cable_car subway aircraft wheelchair scooter drone" speed="12.50" length="5.05" shape="113.92,179.67 108.88,179.89"/>
    </edge>
    <edge id=":535348357_0" function="internal">
        <lane id=":535348357_0_0" index="0" disallow="tram rail_urban rail rail_electric rail_fast ship container cable_car subway aircraft wheelchair scooter drone" speed="12.50" length="10.88" shape="89.57,163.34 79.38,167.15"/>
    </edge>
    <edge id=":535348357_1" function="internal">
        <lane id=":535348357_1_0" index="0" disallow="tram rail_urban rail rail_electric rail_fast ship container cable_car subway aircraft wheelchair scooter drone" speed="13.19" length="12.54" shape="81.91,172.57 81.74,168.79 82.23,166.21 83.25,163.69 84.67,160.08"/>
        <lane id=":535348357_1_1" index="1" disallow="tram rail_urban rail rail_electric rail_fast ship container cable_car subway aircraft wheelchair scooter drone" speed="13.19" length="12.54" shape="85.15,172.71 84.98,169.20 85.44,166.81 86.39,164.47 87.69,161.12"/>
    </edge>
    <edge id=":535349405_0" function="internal">
        <lane id=":535349405_0_0" index="0" disallow="tram rail_urban rail rail_electric rail_fast ship container cable_car subway aircraft wheelchair scooter drone" speed="12.50" length="9.91" shape="99.34,160.92 96.58,161.86 94.56,162.13 92.54,162.39 89.75,163.27"/>
    </edge>
    <edge id=":535349405_1" function="internal">
        <lane id=":535349405_1_0" index="0" disallow="tram rail_urban rail rail_electric rail_fast ship container cable_car subway aircraft wheelchair scooter drone" speed="12.50" length="8.80" shape="91.85,158.03 98.72,163.31"/>
        <lane id=":535349405_1_1" index="1" disallow="tram rail_urban rail rail_electric rail_fast ship container cable_car subway aircraft wheelchair scooter drone" speed="12.50" length="8.80" shape="89.78,160.47 96.87,165.92"/>
    </edge>
    <edge id=":5564640220_0" function="internal">
        <lane id=":5564640220_0_0" index="0" allow="pedestrian bicycle" speed="5.56" length="4.92" width="2.00" shape="113.78,185.00 108.86,184.89"/>
    </edge>
    <edge id=":5564640220_1" function="internal">
        <lane id=":5564640220_1_0" index="0" allow="pedestrian bicycle" speed="2.89" length="2.92" width="2.00" shape="113.78,185.00 113.05,184.47 112.82,183.96 113.09,183.47 113.85,183.00"/>
    </edge>
    <edge id=":5564640220_2" function="internal">
        <lane id=":5564640220_2_0" index="0" allow="pedestrian bicycle" speed="5.56" length="4.98" width="2.00" shape="108.87,182.89 113.85,183.00"/>
    </edge>
    <edge id=":5564640220_3" function="internal">
        <lane id=":5564640220_3_0" index="0" allow="pedestrian bicycle" speed="2.89" length="2.92" width="2.00" shape="108.87,182.89 109.62,183.39 109.87,183.89 109.62,184.39 108.86,184.89"/>
    </edge>
    <edge id=":5564641121_0" function="internal">
        <lane id=":5564641121_0_0" index="0" disallow="tram rail_urban rail rail_electric rail_fast ship container cable_car subway aircraft wheelchair scooter drone" speed="13.89" length="4.47" shape="78.04,176.55 73.77,175.19"/>
    </edge>
    <edge id=":5564641122_0" function="internal">
        <lane id=":5564641122_0_0" index="0" disallow="tram rail_urban rail rail_electric rail_fast ship container cable_car subway aircraft wheelchair scooter drone" speed="12.50" length="4.28" shape="79.19,167.22 75.13,168.58"/>
    </edge>
    <edge id=":5564641125_0" function="internal">
        <lane id=":5564641125_0_0" index="0" allow="pedestrian bicycle" speed="2.89" length="2.92" width="2.00" shape="70.65,147.24 71.54,147.41 71.96,147.78 71.93,148.34 71.43,149.09"/>
    </edge>
    <edge id=":8284303573_0" function="internal">
        <lane id=":8284303573_0_0" index="0" disallow="tram rail_urban rail rail_electric rail_fast ship container cable_car subway aircraft wheelchair scooter drone" speed="8.68" length="6.57" shape="106.30,157.58 104.75,158.63 103.96,159.70 103.52,161.04 103.00,162.93"/>
        <lane id=":8284303573_0_1" index="1" disallow="tram rail_urban rail rail_electric rail_fast ship container cable_car subway aircraft wheelchair scooter drone" speed="9.61" length="8.15" shape="106.30,157.58 104.04,158.54 102.28,159.10 100.94,160.00 99.94,161.99"/>
    </edge>
    <edge id=":8284303573_2" function="internal">
        <lane id=":8284303573_2_0" index="0" disallow="tram rail_urban rail rail_electric rail_fast ship container cable_car subway aircraft wheelchair scooter drone" speed="12.50" length="7.39" shape="106.30,157.58 104.34,158.64 102.97,159.32 101.57,159.95 99.52,160.84"/>
        <lane id=":8284303573_2_1" index="1" disallow="tram rail_urban rail rail_electric rail_fast ship container cable_car subway aircraft wheelchair scooter drone" speed="12.50" length="7.39" shape="104.76,154.78 102.87,155.80 101.55,156.45 100.21,157.05 98.24,157.91"/>
    </edge>
    <edge id=":86035701_0" function="internal">
        <lane id=":86035701_0_0" index="0" disallow="pedestrian tram rail_urban rail rail_electric rail_fast ship container cable_car subway aircraft wheelchair scooter drone" speed="12.50" length="0.23" shape="74.65,158.83 74.71,158.81 74.76,158.79 74.80,158.77 74.86,158.75"/>
    </edge>
    <edge id=":87333430_0" function="internal">
        <lane id=":87333430_0_0" index="0" disallow="tram rail_urban rail rail_electric rail_fast ship container cable_car subway aircraft wheelchair scooter drone" speed="3.65" length="4.67" shape="99.30,406.38 98.52,407.59 97.72,408.00 96.92,407.61 96.10,406.42"/>
    </edge>
    <edge id=":9127092990_0" function="internal">
        <lane id=":9127092990_0_0" index="0" allow="pedestrian bicycle" speed="2.89" length="2.92" width="2.00" shape="23.97,158.71 23.27,158.14 23.07,157.62 23.36,157.14 24.16,156.72"/>
    </edge>

    <edge id="-1118360866" from="249841829" to="5233155797" priority="1" type="highway.footway" shape="85.46,189.30 78.42,190.09 19.72,190.68 13.36,188.48">
        <lane id="-1118360866_0" index="0" allow="pedestrian" speed="2.78" length="68.26" width="2.00" shape="80.90,190.82 78.48,191.09 19.55,191.69 13.04,189.43"/>
    </edge>
    <edge id="-286506389" from="249841800" to="87333430" priority="12" type="highway.primary" shape="91.05,211.43 91.35,241.49 92.94,273.27 93.51,291.61 97.46,387.39 97.70,406.40">
        <lane id="-286506389_0" index="0" disallow="tram rail_urban rail rail_electric rail_fast ship container cable_car subway aircraft wheelchair scooter drone" speed="13.89" length="203.30" shape="92.57,203.21 92.95,241.44 94.54,273.21 95.11,291.55 99.06,387.35 99.30,406.38"/>
        <param key="ref" value="N 184"/>
    </edge>
    <edge id="-42809504" from="5233157021" to="535344457" priority="10" type="highway.tertiary" shape="446.12,186.26 437.74,186.05 359.83,184.70 352.95,184.48 308.94,183.20 300.67,182.92 235.85,181.82 172.33,181.09 164.12,181.00 119.55,179.43">
        <lane id="-42809504_0" index="0" disallow="tram rail_urban rail rail_electric rail_fast ship container cable_car subway aircraft wheelchair scooter drone" speed="12.50" length="327.26" shape="446.08,187.86 437.70,187.65 359.80,186.30 352.91,186.08 308.89,184.79 300.63,184.52 235.83,183.42 172.31,182.69 164.08,182.60 118.90,181.01"/>
    </edge>
    <edge id="-987434544" from="5564641125" to="9127092990" priority="1" type="highway.path" shape="73.44,147.16 68.48,149.24 35.10,161.07 31.67,158.36 26.95,157.98 24.07,157.71">
        <lane id="-987434544_0" index="0" allow="pedestrian bicycle" speed="5.56" length="50.76" width="2.00" shape="71.43,149.09 68.84,150.18 34.91,162.19 31.29,159.34 26.86,158.97 23.97,158.71"/>
    </edge>
    <edge id="-987434550#0" from="5564640220" to="535345634" priority="1" type="highway.path" shape="111.11,183.90 107.33,183.88 104.26,184.80 101.35,186.59 100.65,188.79 94.31,188.87">
        <lane id="-987434550#0_0" index="0" allow="pedestrian bicycle" speed="5.56" length="11.80" width="2.00" shape="108.86,184.89 107.47,184.88 104.67,185.72 102.19,187.24 101.38,189.78 99.46,189.80"/>
    </edge>
    <edge id="-987434550#1" from="5233155805" to="5564640220" priority="1" type="highway.path" shape="159.86,185.29 155.24,185.52 111.11,183.90">
        <lane id="-987434550#1_0" index="0" allow="pedestrian bicycle" speed="5.56" length="46.16" width="2.00" shape="159.91,186.28 155.24,186.52 113.78,185.00"/>
    </edge>
    <edge id="1025481671" from="249841815" to="9455201398" priority="12" type="highway.primary" spreadType="center" shape="64.50,172.16 39.92,178.84 13.40,183.45 3.60,184.37 2.97,184.41">
        <lane id="1025481671_0" index="0" disallow="tram rail_urban rail rail_electric rail_fast ship container cable_car subway aircraft wheelchair scooter drone" speed="12.50" length="60.88" shape="62.59,172.68 39.92,178.84 13.40,183.45 3.60,184.37 2.97,184.41"/>
        <param key="ref" value="N 13"/>
    </edge>
    <edge id="1025481675" from="9455201401" to="86035701" priority="7" type="highway.primary_link" spreadType="center" shape="0.00,175.66 10.15,174.71 27.73,171.99 45.92,167.37 74.76,158.79">
        <lane id="1025481675_0" index="0" disallow="pedestrian tram rail_urban rail rail_electric rail_fast ship container cable_car subway aircraft wheelchair scooter drone" speed="12.50" length="76.72" shape="-0.00,175.66 10.15,174.71 27.73,171.99 45.92,167.37 74.65,158.83"/>
    </edge>
    <edge id="1074625261" from="1831251388" to="535345872" priority="7" type="highway.primary_link" spreadType="center">
        <lane id="1074625261_0" index="0" disallow="tram rail_urban rail rail_electric rail_fast ship container cable_car subway aircraft wheelchair scooter drone" speed="12.50" length="0.20" shape="90.20,179.48 90.00,179.45"/>
    </edge>
    <edge id="1074625262" from="535345872" to="535348357" priority="12" type="highway.primary" spreadType="center" shape="84.22,178.45 83.45,171.94 84.53,165.41">
        <lane id="1074625262_0" index="0" disallow="tram rail_urban rail rail_electric rail_fast ship container cable_car subway aircraft wheelchair scooter drone" speed="13.89" length="0.26" shape="81.95,172.90 81.91,172.57"/>
        <lane id="1074625262_1" index="1" disallow="tram rail_urban rail rail_electric rail_fast ship container cable_car subway aircraft wheelchair scooter drone" speed="13.89" length="0.26" shape="85.18,172.91 85.15,172.71"/>
    </edge>
    <edge id="1118360866" from="5233155797" to="249841829" priority="1" type="highway.footway" shape="13.36,188.48 19.72,190.68 78.42,190.09 85.46,189.30">
        <lane id="1118360866_0" index="0" allow="pedestrian" speed="2.78" length="67.36" width="2.00" shape="13.69,187.54 19.88,189.68 78.35,189.09 80.68,188.83"/>
    </edge>
    <edge id="172192379#0" from="249841800" to="4978406222" priority="12" type="highway.primary" spreadType="center">
        <lane id="172192379#0_0" index="0" disallow="tram rail_urban rail rail_electric rail_fast ship container cable_car subway aircraft wheelchair scooter drone" speed="13.89" length="0.20" shape="84.64,193.47 84.59,193.28"/>
        <lane id="172192379#0_1" index="1" disallow="tram rail_urban rail rail_electric rail_fast ship container cable_car subway aircraft wheelchair scooter drone" speed="13.89" length="0.20" shape="87.74,192.65 87.68,192.46"/>
    </edge>