<?xml version="1.0" encoding="UTF-8"?>

<!-- generated on 2024-09-03 01:37:07 by Eclipse SUMO netconvert Version 1.20.0
<configuration xmlns:xsi="http://www.w3.org/2001/XMLSchema-instance" xsi:noNamespaceSchemaLocation="http://sumo.dlr.de/xsd/netconvertConfiguration.xsd">

    <input>
        <osm-files value="train_files/intersection/easy/osm_files/map(44).osm"/>
    </input>

    <output>
        <output-file value="train_files/intersection/easy/outputs/map(44)_dict/map(44)/map(44).net.xml"/>
    </output>

    <projection>
        <proj.utm value="true"/>
    </projection>

    <building_defaults>
        <default.junctions.keep-clear value="false"/>
    </building_defaults>

</configuration>
-->

<net version="1.20" junctionCornerDetail="5" limitTurnSpeed="5.50" xmlns:xsi="http://www.w3.org/2001/XMLSchema-instance" xsi:noNamespaceSchemaLocation="http://sumo.dlr.de/xsd/net_file.xsd">

    <location netOffset="-486354.57,-5417597.75" convBoundary="0.00,0.00,1267.18,578.73" origBoundary="2.813752,48.911192,2.831056,48.916376" projParameter="+proj=utm +zone=31 +ellps=WGS84 +datum=WGS84 +units=m +no_defs"/>

    <type id="highway.residential" priority="3" numLanes="1" speed="13.89" disallow="tram rail_urban rail rail_electric rail_fast ship container cable_car subway aircraft wheelchair scooter drone" oneway="0"/>
    <type id="highway.secondary" priority="11" numLanes="1" speed="27.78" disallow="tram rail_urban rail rail_electric rail_fast ship container cable_car subway aircraft wheelchair scooter drone" oneway="0"/>
    <type id="highway.tertiary" priority="10" numLanes="1" speed="22.22" disallow="tram rail_urban rail rail_electric rail_fast ship container cable_car subway aircraft wheelchair scooter drone" oneway="0"/>
    <type id="highway.unclassified" priority="4" numLanes="1" speed="13.89" disallow="tram rail_urban rail rail_electric rail_fast ship container cable_car subway aircraft wheelchair scooter drone" oneway="0"/>

    <edge id=":285367145_0" function="internal">
        <lane id=":285367145_0_0" index="0" disallow="tram rail_urban rail rail_electric rail_fast ship container cable_car subway aircraft wheelchair scooter drone" speed="3.65" length="4.67" shape="1268.60,308.98 1268.45,310.41 1267.92,311.14 1267.03,311.15 1265.76,310.46"/>
    </edge>
    <edge id=":317916994_0" function="internal">
        <lane id=":317916994_0_0" index="0" disallow="tram rail_urban rail rail_electric rail_fast ship container cable_car subway aircraft wheelchair scooter drone" speed="3.65" length="4.67" shape="1.51,579.25 0.36,580.12 -0.53,580.24 -1.15,579.59 -1.51,578.20"/>
    </edge>
    <edge id=":317917121_0" function="internal">
        <lane id=":317917121_0_0" index="0" disallow="tram rail_urban rail rail_electric rail_fast ship container cable_car subway aircraft wheelchair scooter drone" speed="6.70" length="6.24" shape="120.87,241.99 119.35,242.59 118.17,243.50 117.32,244.73 116.81,246.28"/>
    </edge>
    <edge id=":317917121_1" function="internal">
        <lane id=":317917121_1_0" index="0" disallow="tram rail_urban rail rail_electric rail_fast ship container cable_car subway aircraft wheelchair scooter drone" speed="5.17" length="7.20" shape="120.87,241.99 118.71,242.26 117.31,241.75 116.68,240.45 116.82,238.36"/>
    </edge>
    <edge id=":317917121_2" function="internal">
        <lane id=":317917121_2_0" index="0" disallow="tram rail_urban rail rail_electric rail_fast ship container cable_car subway aircraft wheelchair scooter drone" speed="18.05" length="7.97" shape="113.67,245.63 114.39,243.41 115.24,242.00 116.10,240.59 116.82,238.36"/>
    </edge>
    <edge id=":317917121_3" function="internal">
        <lane id=":317917121_3_0" index="0" disallow="tram rail_urban rail rail_electric rail_fast ship container cable_car subway aircraft wheelchair scooter drone" speed="3.65" length="4.67" shape="113.67,245.63 114.70,244.62 115.56,244.39 116.27,244.94 116.81,246.28"/>
    </edge>
    <edge id=":317917305_0" function="internal">
        <lane id=":317917305_0_0" index="0" disallow="tram rail_urban rail rail_electric rail_fast ship container cable_car subway aircraft wheelchair scooter drone" speed="3.73" length="4.63" shape="109.69,156.13 110.14,154.77 110.80,154.19 111.67,154.36 112.75,155.30"/>
    </edge>
    <edge id=":317917371_0" function="internal">
        <lane id=":317917371_0_0" index="0" disallow="tram rail_urban rail rail_electric rail_fast ship container cable_car subway aircraft wheelchair scooter drone" speed="5.71" length="9.20" shape="219.75,240.77 217.01,240.71 215.36,241.57 214.81,243.35 215.35,246.04"/>
    </edge>
    <edge id=":317917371_1" function="internal">
        <lane id=":317917371_1_0" index="0" disallow="tram rail_urban rail rail_electric rail_fast ship container cable_car subway aircraft wheelchair scooter drone" speed="13.89" length="11.62" shape="219.75,240.77 216.54,240.38 213.95,240.16 211.40,239.77 208.31,238.91"/>
    </edge>
    <edge id=":317917371_2" function="internal">
        <lane id=":317917371_2_0" index="0" disallow="tram rail_urban rail rail_electric rail_fast ship container cable_car subway aircraft wheelchair scooter drone" speed="3.65" length="1.44" shape="219.75,240.77 218.69,239.79"/>
    </edge>
    <edge id=":317917371_6" function="internal">
        <lane id=":317917371_6_0" index="0" disallow="tram rail_urban rail rail_electric rail_fast ship container cable_car subway aircraft wheelchair scooter drone" speed="3.65" length="3.23" shape="218.69,239.79 218.41,238.94 218.93,238.21 220.24,237.60"/>
    </edge>
    <edge id=":317917371_3" function="internal">
        <lane id=":317917371_3_0" index="0" disallow="tram rail_urban rail rail_electric rail_fast ship container cable_car subway aircraft wheelchair scooter drone" speed="13.89" length="11.56" shape="208.87,235.73 211.95,236.59 214.48,236.98 217.05,237.21 220.24,237.60"/>
    </edge>
    <edge id=":317917371_4" function="internal">
        <lane id=":317917371_4_0" index="0" disallow="tram rail_urban rail rail_electric rail_fast ship container cable_car subway aircraft wheelchair scooter drone" speed="10.49" length="2.18" shape="208.87,235.73 210.51,236.79 210.65,236.97"/>
    </edge>
    <edge id=":317917371_5" function="internal">
        <lane id=":317917371_5_0" index="0" disallow="tram rail_urban rail rail_electric rail_fast ship container cable_car subway aircraft wheelchair scooter drone" speed="3.66" length="1.46" shape="208.87,235.73 209.92,236.73"/>
    </edge>
    <edge id=":317917371_7" function="internal">
        <lane id=":317917371_7_0" index="0" disallow="tram rail_urban rail rail_electric rail_fast ship container cable_car subway aircraft wheelchair scooter drone" speed="10.49" length="10.29" shape="210.65,236.97 212.14,238.86 213.75,241.95 215.35,246.04"/>
    </edge>
    <edge id=":317917371_8" function="internal">
        <lane id=":317917371_8_0" index="0" disallow="tram rail_urban rail rail_electric rail_fast ship container cable_car subway aircraft wheelchair scooter drone" speed="3.66" length="3.27" shape="209.92,236.73 210.18,237.60 209.64,238.33 208.31,238.91"/>
    </edge>
    <edge id=":317917374_0" function="internal">
        <lane id=":317917374_0_0" index="0" disallow="tram rail_urban rail rail_electric rail_fast ship container cable_car subway aircraft wheelchair scooter drone" speed="13.89" length="11.19" shape="368.43,263.77 357.36,262.10"/>
    </edge>
    <edge id=":317917374_1" function="internal">
        <lane id=":317917374_1_0" index="0" disallow="tram rail_urban rail rail_electric rail_fast ship container cable_car subway aircraft wheelchair scooter drone" speed="3.65" length="1.44" shape="368.43,263.77 367.36,262.80"/>
    </edge>
    <edge id=":317917374_6" function="internal">
        <lane id=":317917374_6_0" index="0" disallow="tram rail_urban rail rail_electric rail_fast ship container cable_car subway aircraft wheelchair scooter drone" speed="3.65" length="3.23" shape="367.36,262.80 367.08,261.96 367.59,261.22 368.90,260.60"/>
    </edge>
    <edge id=":317917374_2" function="internal">
        <lane id=":317917374_2_0" index="0" disallow="tram rail_urban rail rail_electric rail_fast ship container cable_car subway aircraft wheelchair scooter drone" speed="13.89" length="11.17" shape="357.85,258.94 368.90,260.60"/>
    </edge>
    <edge id=":317917374_3" function="internal">
        <lane id=":317917374_3_0" index="0" disallow="tram rail_urban rail rail_electric rail_fast ship container cable_car subway aircraft wheelchair scooter drone" speed="3.65" length="1.44" shape="357.85,258.94 358.92,259.91"/>
    </edge>
    <edge id=":317917374_7" function="internal">
        <lane id=":317917374_7_0" index="0" disallow="tram rail_urban rail rail_electric rail_fast ship container cable_car subway aircraft wheelchair scooter drone" speed="3.65" length="3.23" shape="358.92,259.91 359.19,260.76 358.67,261.49 357.36,262.10"/>
    </edge>
    <edge id=":317917374_4" function="internal">
        <lane id=":317917374_4_0" index="0" disallow="tram rail_urban rail rail_electric rail_fast ship container cable_car subway aircraft wheelchair scooter drone" speed="6.63" length="9.13" shape="362.18,268.58 362.13,266.06 361.31,264.14 359.72,262.82 357.36,262.10"/>
    </edge>
    <edge id=":317917374_5" function="internal">
        <lane id=":317917374_5_0" index="0" disallow="tram rail_urban rail rail_electric rail_fast ship container cable_car subway aircraft wheelchair scooter drone" speed="7.27" length="11.80" shape="362.18,268.58 362.99,264.78 364.38,262.18 366.34,260.79 368.90,260.60"/>
    </edge>
    <edge id=":4074832756_0" function="internal">
        <lane id=":4074832756_0_0" index="0" disallow="tram rail_urban rail rail_electric rail_fast ship container cable_car subway aircraft wheelchair scooter drone" speed="3.70" length="4.65" shape="193.81,334.24 193.66,335.67 193.13,336.39 192.24,336.40 190.99,335.71"/>
    </edge>
    <edge id=":534942491_0" function="internal">
        <lane id=":534942491_0_0" index="0" disallow="tram rail_urban rail rail_electric rail_fast ship container cable_car subway aircraft wheelchair scooter drone" speed="13.89" length="11.07" shape="198.60,235.62 195.62,234.51 193.32,233.69 190.98,233.36 187.91,233.70"/>
    </edge>
    <edge id=":534942491_1" function="internal">
        <lane id=":534942491_1_0" index="0" disallow="tram rail_urban rail rail_electric rail_fast ship container cable_car subway aircraft wheelchair scooter drone" speed="7.99" length="3.57" shape="198.60,235.62 195.58,233.96 195.51,233.85"/>
    </edge>
    <edge id=":534942491_2" function="internal">
        <lane id=":534942491_2_0" index="0" disallow="tram rail_urban rail rail_electric rail_fast ship container cable_car subway aircraft wheelchair scooter drone" speed="3.65" length="1.45" shape="198.60,235.62 197.84,234.39"/>
    </edge>
    <edge id=":534942491_8" function="internal">
        <lane id=":534942491_8_0" index="0" disallow="tram rail_urban rail rail_electric rail_fast ship container cable_car subway aircraft wheelchair scooter drone" speed="7.99" length="10.56" shape="195.51,233.85 193.87,231.45 193.47,228.10 194.37,223.91"/>
    </edge>
    <edge id=":534942491_9" function="internal">
        <lane id=":534942491_9_0" index="0" disallow="tram rail_urban rail rail_electric rail_fast ship container cable_car subway aircraft wheelchair scooter drone" speed="3.65" length="3.24" shape="197.84,234.39 197.82,233.49 198.52,232.93 199.95,232.71"/>
    </edge>
    <edge id=":534942491_3" function="internal">
        <lane id=":534942491_3_0" index="0" disallow="tram rail_urban rail rail_electric rail_fast ship container cable_car subway aircraft wheelchair scooter drone" speed="6.33" length="9.26" shape="197.26,225.28 196.43,227.85 196.60,229.95 197.77,231.57 199.95,232.71"/>
    </edge>
    <edge id=":534942491_4" function="internal">
        <lane id=":534942491_4_0" index="0" disallow="tram rail_urban rail rail_electric rail_fast ship container cable_car subway aircraft wheelchair scooter drone" speed="10.57" length="13.04" shape="197.26,225.28 195.39,228.52 193.21,231.00 190.72,232.73 187.91,233.70"/>
    </edge>
    <edge id=":534942491_5" function="internal">
        <lane id=":534942491_5_0" index="0" disallow="tram rail_urban rail rail_electric rail_fast ship container cable_car subway aircraft wheelchair scooter drone" speed="3.70" length="4.67" shape="197.26,225.28 196.02,226.02 195.13,226.04 194.58,225.34 194.37,223.91"/>
    </edge>
    <edge id=":534942491_6" function="internal">
        <lane id=":534942491_6_0" index="0" disallow="tram rail_urban rail rail_electric rail_fast ship container cable_car subway aircraft wheelchair scooter drone" speed="7.23" length="9.62" shape="187.11,228.85 189.58,228.79 191.61,227.94 193.21,226.32 194.37,223.91"/>
    </edge>
    <edge id=":534942491_7" function="internal">
        <lane id=":534942491_7_0" index="0" disallow="tram rail_urban rail rail_electric rail_fast ship container cable_car subway aircraft wheelchair scooter drone" speed="13.89" length="13.44" shape="187.11,228.85 190.54,229.48 193.61,230.41 196.64,231.52 199.95,232.71"/>
    </edge>
    <edge id=":534944772_0" function="internal">
        <lane id=":534944772_0_0" index="0" disallow="tram rail_urban rail rail_electric rail_fast ship container cable_car subway aircraft wheelchair scooter drone" speed="3.65" length="4.67" shape="562.43,210.22 563.70,210.91 564.17,211.67 563.85,212.50 562.72,213.41"/>
    </edge>
    <edge id=":9026823466_0" function="internal">
        <lane id=":9026823466_0_0" index="0" disallow="tram rail_urban rail rail_electric rail_fast ship container cable_car subway aircraft wheelchair scooter drone" speed="16.67" length="0.29" shape="149.18,256.23 149.05,255.97"/>
    </edge>
    <edge id=":9026823471_0" function="internal">
        <lane id=":9026823471_0_0" index="0" disallow="tram rail_urban rail rail_electric rail_fast ship container cable_car subway aircraft wheelchair scooter drone" speed="13.89" length="7.59" shape="123.81,186.73 124.72,188.72 125.72,189.89 126.79,191.03 127.92,192.93"/>
        <lane id=":9026823471_0_1" index="1" disallow="tram rail_urban rail rail_electric rail_fast ship container cable_car subway aircraft wheelchair scooter drone" speed="13.89" length="7.59" shape="123.81,186.73 124.27,188.95 124.26,190.55 124.32,192.12 125.00,194.25"/>
    </edge>
    <edge id=":9026823474_0" function="internal">
        <lane id=":9026823474_0_0" index="0" disallow="tram rail_urban rail rail_electric rail_fast ship container cable_car subway aircraft wheelchair scooter drone" speed="6.47" length="9.03" shape="155.54,241.16 153.45,242.50 152.31,244.19 152.11,246.21 152.86,248.58"/>
    </edge>
    <edge id=":9026823474_1" function="internal">
        <lane id=":9026823474_1_0" index="0" disallow="tram rail_urban rail rail_electric rail_fast ship container cable_car subway aircraft wheelchair scooter drone" speed="9.48" length="11.06" shape="155.54,241.16 152.96,241.98 150.33,242.10 147.67,241.51 144.97,240.21"/>
    </edge>
    <edge id=":9026823474_2" function="internal">
        <lane id=":9026823474_2_0" index="0" disallow="tram rail_urban rail rail_electric rail_fast ship container cable_car subway aircraft wheelchair scooter drone" speed="16.67" length="13.83" shape="147.04,236.03 152.86,248.58"/>
    </edge>
    <edge id=":9026823480_0" function="internal">
        <lane id=":9026823480_0_0" index="0" disallow="tram rail_urban rail rail_electric rail_fast ship container cable_car subway aircraft wheelchair scooter drone" speed="9.50" length="14.58" shape="140.53,218.28 143.21,223.07 145.64,226.44 147.82,228.39 149.75,228.93"/>
    </edge>
    <edge id=":9026823480_1" function="internal">
        <lane id=":9026823480_1_0" index="0" disallow="tram rail_urban rail rail_electric rail_fast ship container cable_car subway aircraft wheelchair scooter drone" speed="13.89" length="18.74" shape="140.53,218.28 143.03,223.90 144.56,228.48 145.68,232.35 146.96,235.85"/>
    </edge>
    <edge id=":9026823480_2" function="internal">
        <lane id=":9026823480_2_0" index="0" disallow="tram rail_urban rail rail_electric rail_fast ship container cable_car subway aircraft wheelchair scooter drone" speed="10.96" length="15.51" shape="137.61,219.60 140.43,225.32 142.33,229.61 143.31,232.46 143.37,233.88"/>
    </edge>
    <edge id=":9026823480_3" function="internal">
        <lane id=":9026823480_3_0" index="0" disallow="tram rail_urban rail rail_electric rail_fast ship container cable_car subway aircraft wheelchair scooter drone" speed="13.04" length="13.61" shape="137.19,224.59 140.17,226.55 143.13,228.02 146.26,228.86 149.75,228.93"/>
    </edge>
    <edge id=":9026823480_4" function="internal">
        <lane id=":9026823480_4_0" index="0" disallow="tram rail_urban rail rail_electric rail_fast ship container cable_car subway aircraft wheelchair scooter drone" speed="13.89" length="15.07" shape="137.19,224.59 140.15,226.93 142.83,229.60 145.14,232.57 146.96,235.85"/>
    </edge>
    <edge id=":9026823480_5" function="internal">
        <lane id=":9026823480_5_0" index="0" disallow="tram rail_urban rail rail_electric rail_fast ship container cable_car subway aircraft wheelchair scooter drone" speed="7.65" length="12.00" shape="137.19,224.59 140.65,227.35 142.83,229.82 143.74,232.00 143.37,233.88"/>
    </edge>
    <edge id=":9026823480_6" function="internal">
        <lane id=":9026823480_6_0" index="0" disallow="tram rail_urban rail rail_electric rail_fast ship container cable_car subway aircraft wheelchair scooter drone" speed="9.20" length="10.01" shape="140.60,232.27 141.74,231.08 143.65,230.13 146.32,229.41 149.75,228.93"/>
    </edge>
    <edge id=":9026823480_7" function="internal">
        <lane id=":9026823480_7_0" index="0" disallow="tram rail_urban rail rail_electric rail_fast ship container cable_car subway aircraft wheelchair scooter drone" speed="5.66" length="9.68" shape="140.60,232.27 142.00,230.77 143.53,230.87 145.18,232.56 146.96,235.85"/>
    </edge>
    <edge id=":9026823486_0" function="internal">
        <lane id=":9026823486_0_0" index="0" disallow="tram rail_urban rail rail_electric rail_fast ship container cable_car subway aircraft wheelchair scooter drone" speed="7.99" length="11.97" shape="143.56,244.86 141.55,241.52 139.39,239.32 137.09,238.26 134.64,238.35"/>
    </edge>
    <edge id=":9026823486_1" function="internal">
        <lane id=":9026823486_1_0" index="0" disallow="tram rail_urban rail rail_electric rail_fast ship container cable_car subway aircraft wheelchair scooter drone" speed="13.89" length="16.70" shape="143.56,244.86 136.17,229.89"/>
    </edge>
    <edge id=":9026823486_2" function="internal">
        <lane id=":9026823486_2_0" index="0" disallow="tram rail_urban rail rail_electric rail_fast ship container cable_car subway aircraft wheelchair scooter drone" speed="10.19" length="13.10" shape="143.56,244.86 141.60,240.50 140.43,236.98 140.07,234.29 140.50,232.44"/>
    </edge>
    <edge id=":9026823486_3" function="internal">
        <lane id=":9026823486_3_0" index="0" disallow="tram rail_urban rail rail_electric rail_fast ship container cable_car subway aircraft wheelchair scooter drone" speed="10.60" length="10.59" shape="144.80,240.11 142.25,238.84 139.70,238.13 137.17,237.97 134.64,238.35"/>
    </edge>
    <edge id=":9026823486_4" function="internal">
        <lane id=":9026823486_4_0" index="0" disallow="tram rail_urban rail rail_electric rail_fast ship container cable_car subway aircraft wheelchair scooter drone" speed="13.89" length="13.58" shape="144.80,240.11 141.96,238.05 139.71,235.71 137.85,233.02 136.17,229.89"/>
    </edge>
    <edge id=":9026823486_5" function="internal">
        <lane id=":9026823486_5_0" index="0" disallow="tram rail_urban rail rail_electric rail_fast ship container cable_car subway aircraft wheelchair scooter drone" speed="6.79" length="9.79" shape="144.80,240.11 142.10,238.16 140.48,236.24 139.95,234.33 140.50,232.44"/>
    </edge>
    <edge id=":9026823486_6" function="internal">
        <lane id=":9026823486_6_0" index="0" disallow="tram rail_urban rail rail_electric rail_fast ship container cable_car subway aircraft wheelchair scooter drone" speed="10.36" length="9.81" shape="143.27,234.05 142.20,235.22 140.41,236.33 137.89,237.37 134.64,238.35"/>
    </edge>
    <edge id=":9026823486_7" function="internal">
        <lane id=":9026823486_7_0" index="0" disallow="tram rail_urban rail rail_electric rail_fast ship container cable_car subway aircraft wheelchair scooter drone" speed="5.93" length="10.58" shape="143.27,234.05 141.80,235.55 140.13,235.36 138.25,233.47 136.17,229.89"/>
    </edge>
    <edge id=":9026823498_0" function="internal">
        <lane id=":9026823498_0_0" index="0" disallow="tram rail_urban rail rail_electric rail_fast ship container cable_car subway aircraft wheelchair scooter drone" speed="13.89" length="15.83" shape="136.08,229.69 128.99,215.54"/>
    </edge>
    <edge id=":9026823498_1" function="internal">
        <lane id=":9026823498_1_0" index="0" disallow="tram rail_urban rail rail_electric rail_fast ship container cable_car subway aircraft wheelchair scooter drone" speed="5.14" length="9.56" shape="136.08,229.69 134.46,225.97 134.08,223.86 134.94,223.36 137.03,224.47"/>
    </edge>
    <edge id=":9026823498_2" function="internal">
        <lane id=":9026823498_2_0" index="0" disallow="tram rail_urban rail rail_electric rail_fast ship container cable_car subway aircraft wheelchair scooter drone" speed="6.56" length="9.09" shape="126.46,223.12 128.51,221.64 129.62,219.88 129.78,217.85 128.99,215.54"/>
    </edge>
    <edge id=":9026823498_3" function="internal">
        <lane id=":9026823498_3_0" index="0" disallow="tram rail_urban rail rail_electric rail_fast ship container cable_car subway aircraft wheelchair scooter drone" speed="8.81" length="11.25" shape="126.46,223.12 128.97,222.22 131.57,222.14 134.26,222.89 137.03,224.47"/>
    </edge>

    <edge id="-1117755265" from="9026823480" to="9026823486" priority="10" type="highway.tertiary">
        <lane id="-1117755265_0" index="0" disallow="tram rail_urban rail rail_electric rail_fast ship container cable_car subway aircraft wheelchair scooter drone" speed="22.22" length="0.20" shape="143.37,233.88 143.27,234.05"/>
    </edge>
    <edge id="-28920884" from="317917121" to="317916994" priority="10" type="highway.tertiary" shape="115.78,243.33 107.89,281.79 93.09,327.69 35.59,477.07 9.91,550.41 0.00,578.73">
        <lane id="-28920884_0" index="0" disallow="tram rail_urban rail rail_electric rail_fast ship container cable_car subway aircraft wheelchair scooter drone" speed="22.22" length="352.79" shape="116.81,246.28 109.44,282.20 94.60,328.22 37.09,477.62 11.42,550.94 1.51,579.25"/>
        <param key="ref" value="D 27"/>
    </edge>
    <edge id="-28920902#0" from="317917371" to="534942491" priority="3" type="highway.residential" shape="212.58,238.04 208.69,237.36 199.26,234.17 192.72,231.13">
        <lane id="-28920902#0_0" index="0" disallow="tram rail_urban rail rail_electric rail_fast ship container cable_car subway aircraft wheelchair scooter drone" speed="13.89" length="10.26" shape="208.31,238.91 198.60,235.62"/>
    </edge>
    <edge id="-28920902#1" from="317917374" to="317917371" priority="3" type="highway.residential">
        <lane id="-28920902#1_0" index="0" disallow="tram rail_urban rail rail_electric rail_fast ship container cable_car subway aircraft wheelchair scooter drone" speed="13.89" length="139.26" shape="357.36,262.10 219.75,240.77"/>
    </edge>
    <edge id="-28920902#2" from="534944772" to="317917374" priority="3" type="highway.residential" shape="562.58,211.81 527.37,215.03 517.31,216.31 510.40,220.72 500.29,231.74 493.38,235.52 447.62,245.91 403.84,259.98 390.84,262.67 379.38,262.99 372.51,262.75 363.28,261.40">
        <lane id="-28920902#2_0" index="0" disallow="tram rail_urban rail rail_electric rail_fast ship container cable_car subway aircraft wheelchair scooter drone" speed="13.89" length="205.31" shape="562.72,213.41 527.55,216.62 517.87,217.85 511.44,221.95 501.29,233.01 493.95,237.03 448.05,247.46 404.25,261.53 391.03,264.26 379.38,264.59 372.37,264.35 368.43,263.77"/>
    </edge>
    <edge id="-42783422" from="285367145" to="534942491" priority="3" type="highway.residential" shape="1267.18,309.72 1231.11,240.54 1225.70,233.39 1220.56,228.36 1210.41,219.69 1202.05,213.44 1193.67,205.13 1184.91,193.69 1171.58,163.00 1167.83,154.22 1163.55,144.16 1144.99,100.75 1128.31,60.16 1127.08,57.15 1125.75,53.90 1122.89,48.36 1120.09,44.20 1117.78,41.68 1100.56,26.90 1091.27,21.01 1078.56,12.94 1060.61,1.34 1050.11,0.00 1033.96,3.28 1025.26,5.13 1001.12,9.79 957.71,19.02 951.73,20.98 903.86,36.58 890.66,39.83 874.36,42.59 857.77,44.34 822.39,46.75 805.97,47.60 761.14,52.20 718.20,65.98 660.40,89.31 617.04,106.35 583.11,117.09 564.88,122.77 529.05,127.24 460.52,134.93 415.87,135.67 197.99,151.31 194.02,156.71 197.15,207.57 197.96,218.25 195.89,224.44 192.72,231.13">
        <lane id="-42783422_0" index="0" disallow="tram rail_urban rail rail_electric rail_fast ship container cable_car subway aircraft wheelchair scooter drone" speed="13.89" length="1334.34" shape="1265.76,310.46 1229.76,241.40 1224.50,234.45 1219.48,229.54 1209.41,220.94 1201.00,214.65 1192.47,206.19 1183.52,194.51 1170.11,163.64 1166.36,154.85 1162.08,144.79 1143.52,101.36 1126.83,60.77 1125.60,57.76 1124.30,54.57 1121.52,49.18 1118.83,45.19 1116.66,42.83 1099.60,28.19 1090.41,22.36 1077.69,14.29 1060.05,2.88 1050.17,1.62 1034.29,4.85 1025.58,6.69 1001.44,11.36 958.12,20.57 952.22,22.50 904.30,38.12 890.99,41.39 874.57,44.17 857.91,45.93 822.48,48.35 806.09,49.20 761.47,53.77 718.75,67.49 660.99,90.80 617.58,107.86 583.59,118.61 565.22,124.34 529.24,128.83 460.62,136.53 415.94,137.27 198.84,152.85 195.65,157.19 198.75,207.46 199.58,218.45 197.38,225.04 197.26,225.28"/>
        <param key="ref" value="D 5"/>
    </edge>
    <edge id="1117755264" from="317917305" to="9026823471" priority="11" type="highway.secondary" spreadType="center" shape="112.69,155.16 118.55,170.42 119.68,173.95 124.94,190.24">
        <lane id="1117755264_0" index="0" disallow="tram rail_urban rail rail_electric rail_fast ship container cable_car subway aircraft wheelchair scooter drone" speed="13.89" length="33.33" shape="112.75,155.30 118.55,170.42 119.68,173.95 123.81,186.73"/>
        <param key="ref" value="D 5"/>
    </edge>
    <edge id="1117755265" from="9026823486" to="9026823480" priority="10" type="highway.tertiary">
        <lane id="1117755265_0" index="0" disallow="tram rail_urban rail rail_electric rail_fast ship container cable_car subway aircraft wheelchair scooter drone" speed="22.22" length="0.20" shape="140.50,232.44 140.60,232.27"/>
    </edge>
    <edge id="28920884" from="317916994" to="317917121" priority="10" type="highway.tertiary" shape="0.00,578.73 9.91,550.41 35.59,477.07 93.09,327.69 107.89,281.79 115.78,243.33">
        <lane id="28920884_0" index="0" disallow="tram rail_urban rail rail_electric rail_fast ship container cable_car subway aircraft wheelchair scooter drone" speed="22.22" length="352.36" shape="-1.51,578.20 8.40,549.88 34.09,476.52 91.58,327.16 106.34,281.38 113.67,245.63"/>
        <param key="ref" value="D 27"/>
    </edge>
    <edge id="28920902#0" from="534942491" to="317917371" priority="3" type="highway.residential" shape="192.72,231.13 199.26,234.17 208.69,237.36 212.58,238.04">
        <lane id="28920902#0_0" index="0" disallow="tram rail_urban rail rail_electric rail_fast ship container cable_car subway aircraft wheelchair scooter drone" speed="13.89" length="9.42" shape="199.95,232.71 208.87,235.73"/>
    </edge>
    <edge id="28920902#1" from="317917371" to="317917374" priority="3" type="highway.residential">
        <lane id="28920902#1_0" index="0" disallow="tram rail_urban rail rail_electric rail_fast ship container cable_car subway aircraft wheelchair scooter drone" speed="13.89" length="139.26" shape="220.24,237.60 357.85,258.94"/>
    </edge>
    <edge id="28920902#2" from="317917374" to="534944772" priority="3" type="highway.residential" shape="363.28,261.40 372.51,262.75 379.38,262.99 390.84,262.67 403.84,259.98 447.62,245.91 493.38,235.52 500.29,231.74 510.40,220.72 517.31,216.31 527.37,215.03 562.58,211.81">
        <lane id="28920902#2_0" index="0" disallow="tram rail_urban rail rail_electric rail_fast ship container cable_car subway aircraft wheelchair scooter drone" speed="13.89" length="204.56" shape="368.90,260.60 372.66,261.16 379.39,261.39 390.66,261.07 403.43,258.43 447.20,244.37 492.81,234.01 499.29,230.46 509.36,219.48 516.75,214.77 527.20,213.44 562.43,210.22"/>
    </edge>
    <edge id="42783422" from="534942491" to="285367145" priority="3" type="highway.residential" shape="192.72,231.13 195.89,224.44 197.96,218.25 197.15,207.57 194.02,156.71 197.99,151.31 415.87,135.67 460.52,134.93 529.05,127.24 564.88,122.77 583.11,117.09 617.04,106.35 660.40,89.31 718.20,65.98 761.14,52.20 805.97,47.60 822.39,46.75 857.77,44.34 874.36,42.59 890.66,39.83 903.86,36.58 951.73,20.98 957.71,19.02 1001.12,9.79 1025.26,5.13 1033.96,3.28 1050.11,0.00 1060.61,1.34 1078.56,12.94 1091.27,21.01 1100.56,26.90 1117.78,41.68 1120.09,44.20 1122.89,48.36 1125.75,53.90 1127.08,57.15 1128.31,60.16 1144.99,100.75 1163.55,144.16 1167.83,154.22 1171.58,163.00 1184.91,193.69 1193.67,205.13 1202.05,213.44 1210.41,219.69 1220.56,228.36 1225.70,233.39 1231.11,240.54 1267.18,309.72">