<?xml version="1.0" encoding="UTF-8"?>

<!-- generated on 2024-09-03 01:37:42 by Eclipse SUMO netconvert Version 1.20.0
<configuration xmlns:xsi="http://www.w3.org/2001/XMLSchema-instance" xsi:noNamespaceSchemaLocation="http://sumo.dlr.de/xsd/netconvertConfiguration.xsd">

    <input>
        <osm-files value="train_files/roundabout/middle/osm_files/map(12).osm"/>
    </input>

    <output>
        <output-file value="train_files/roundabout/middle/outputs/map(12)_dict/map(12)/map(12).net.xml"/>
    </output>

    <projection>
        <proj.utm value="true"/>
    </projection>

    <building_defaults>
        <default.junctions.keep-clear value="false"/>
    </building_defaults>

</configuration>
-->

<net version="1.20" junctionCornerDetail="5" limitTurnSpeed="5.50" xmlns:xsi="http://www.w3.org/2001/XMLSchema-instance" xsi:noNamespaceSchemaLocation="http://sumo.dlr.de/xsd/net_file.xsd">

    <location netOffset="-443261.98,-5406628.71" convBoundary="0.00,0.00,608.58,949.84" origBoundary="2.227112,48.810084,2.235402,48.818614" projParameter="+proj=utm +zone=31 +ellps=WGS84 +datum=WGS84 +units=m +no_defs"/>

    <type id="highway.footway" priority="1" numLanes="1" speed="2.78" allow="pedestrian" oneway="1" width="2.00"/>
    <type id="highway.living_street" priority="2" numLanes="1" speed="2.78" disallow="tram rail_urban rail rail_electric rail_fast ship container cable_car subway aircraft wheelchair scooter drone" oneway="0"/>
    <type id="highway.residential" priority="3" numLanes="1" speed="13.89" disallow="tram rail_urban rail rail_electric rail_fast ship container cable_car subway aircraft wheelchair scooter drone" oneway="0"/>
    <type id="highway.secondary" priority="11" numLanes="1" speed="27.78" disallow="tram rail_urban rail rail_electric rail_fast ship container cable_car subway aircraft wheelchair scooter drone" oneway="0"/>
    <type id="highway.service" priority="1" numLanes="1" speed="5.56" allow="pedestrian delivery bicycle" oneway="0"/>
    <type id="highway.steps" priority="1" numLanes="1" speed="1.39" allow="pedestrian" oneway="1" width="2.00"/>

    <edge id=":10166751105_0" function="internal">
        <lane id=":10166751105_0_0" index="0" disallow="tram rail_urban rail rail_electric rail_fast ship container cable_car subway aircraft wheelchair scooter drone" speed="2.78" length="5.15" shape="188.48,883.15 189.23,878.06"/>
    </edge>
    <edge id=":1379721080_0" function="internal">
        <lane id=":1379721080_0_0" index="0" allow="pedestrian delivery bicycle" speed="3.65" length="4.67" shape="216.36,827.48 215.40,828.56 214.55,828.84 213.81,828.33 213.19,827.03"/>
    </edge>
    <edge id=":1487292976_0" function="internal">
        <lane id=":1487292976_0_0" index="0" disallow="tram rail_urban rail rail_electric rail_fast ship container cable_car subway aircraft wheelchair scooter drone" speed="3.65" length="4.67" shape="180.34,950.07 179.38,951.14 178.53,951.42 177.79,950.91 177.17,949.60"/>
    </edge>
    <edge id=":1489668086_0" function="internal">
        <lane id=":1489668086_0_0" index="0" allow="pedestrian delivery bicycle" speed="3.65" length="4.67" shape="290.83,325.51 291.81,324.45 292.66,324.18 293.39,324.70 293.99,326.01"/>
    </edge>
    <edge id=":1489668458_0" function="internal">
        <lane id=":1489668458_0_0" index="0" disallow="tram rail_urban rail rail_electric rail_fast ship container cable_car subway aircraft wheelchair scooter drone" speed="3.65" length="4.67" shape="-0.76,732.09 -1.44,730.82 -1.41,729.93 -0.68,729.41 0.76,729.27"/>
    </edge>
    <edge id=":1490337578_0" function="internal">
        <lane id=":1490337578_0_0" index="0" disallow="tram rail_urban rail rail_electric rail_fast ship container cable_car subway aircraft wheelchair scooter drone" speed="27.78" length="5.48" shape="195.36,886.69 196.27,885.42 196.86,884.54 197.40,883.62 198.12,882.24"/>
        <lane id=":1490337578_0_1" index="1" disallow="tram rail_urban rail rail_electric rail_fast ship container cable_car subway aircraft wheelchair scooter drone" speed="27.78" length="5.48" shape="197.95,888.56 198.94,887.19 199.59,886.22 200.17,885.22 200.96,883.72"/>
    </edge>
    <edge id=":1490337767_0" function="internal">
        <lane id=":1490337767_0_0" index="0" disallow="tram rail_urban rail rail_electric rail_fast ship container cable_car subway aircraft wheelchair scooter drone" speed="12.06" length="9.21" shape="191.42,903.16 189.38,905.02 187.86,906.30 186.80,907.81 186.14,910.34"/>
    </edge>
    <edge id=":1490337767_1" function="internal">
        <lane id=":1490337767_1_0" index="0" disallow="tram rail_urban rail rail_electric rail_fast ship container cable_car subway aircraft wheelchair scooter drone" speed="20.83" length="6.37" shape="182.97,909.88 184.13,904.18"/>
        <lane id=":1490337767_1_1" index="1" disallow="tram rail_urban rail rail_electric rail_fast ship container cable_car subway aircraft wheelchair scooter drone" speed="20.83" length="6.37" shape="182.97,909.88 183.75,908.16 185.05,907.33 186.39,906.51 187.26,904.80"/>
    </edge>
    <edge id=":1494183659_0" function="internal">
        <lane id=":1494183659_0_0" index="0" disallow="tram rail_urban rail rail_electric rail_fast ship container cable_car subway aircraft wheelchair scooter drone" speed="7.70" length="10.08" shape="198.94,828.69 198.65,830.89 199.24,833.03 200.70,835.11 203.06,837.12"/>
    </edge>
    <edge id=":1494183659_1" function="internal">
        <lane id=":1494183659_1_0" index="0" disallow="tram rail_urban rail rail_electric rail_fast ship container cable_car subway aircraft wheelchair scooter drone" speed="3.65" length="4.67" shape="198.94,828.69 197.81,829.58 196.92,829.71 196.29,829.08 195.90,827.69"/>
    </edge>
    <edge id=":1494183659_2" function="internal">
        <lane id=":1494183659_2_0" index="0" disallow="tram rail_urban rail rail_electric rail_fast ship container cable_car subway aircraft wheelchair scooter drone" speed="5.77" length="7.68" shape="189.43,828.81 191.79,829.75 193.66,829.87 195.03,829.19 195.90,827.69"/>
    </edge>
    <edge id=":1494183659_3" function="internal">
        <lane id=":1494183659_3_0" index="0" disallow="tram rail_urban rail rail_electric rail_fast ship container cable_car subway aircraft wheelchair scooter drone" speed="13.89" length="15.76" shape="189.43,828.81 193.64,831.00 196.47,832.60 199.18,834.38 203.06,837.12"/>
        <lane id=":1494183659_3_1" index="1" disallow="tram rail_urban rail rail_electric rail_fast ship container cable_car subway aircraft wheelchair scooter drone" speed="13.89" length="15.76" shape="187.97,831.66 192.06,833.78 194.80,835.34 197.44,837.07 201.20,839.73"/>
    </edge>
    <edge id=":1494183659_5" function="internal">
        <lane id=":1494183659_5_0" index="0" disallow="tram rail_urban rail rail_electric rail_fast ship container cable_car subway aircraft wheelchair scooter drone" speed="17.73" length="15.11" shape="195.53,842.63 194.93,838.90 194.74,835.11 195.04,831.34 195.90,827.69"/>
    </edge>
    <edge id=":1507311619_0" function="internal">
        <lane id=":1507311619_0_0" index="0" disallow="tram rail_urban rail rail_electric rail_fast ship container cable_car subway aircraft wheelchair scooter drone" speed="3.65" length="4.67" shape="325.23,-0.25 326.20,-1.31 327.06,-1.58 327.78,-1.06 328.39,0.25"/>
    </edge>
    <edge id=":1594647369_0" function="internal">
        <lane id=":1594647369_0_0" index="0" disallow="tram rail_urban rail rail_electric rail_fast ship container cable_car subway aircraft wheelchair scooter drone" speed="13.89" length="0.30" shape="264.66,826.41 264.45,826.63"/>
    </edge>
    <edge id=":1594647369_1" function="internal">
        <lane id=":1594647369_1_0" index="0" disallow="tram rail_urban rail rail_electric rail_fast ship container cable_car subway aircraft wheelchair scooter drone" speed="13.89" length="0.30" shape="262.09,824.48 262.29,824.26"/>
    </edge>
    <edge id=":1594647373_0" function="internal">
        <lane id=":1594647373_0_0" index="0" disallow="tram rail_urban rail rail_electric rail_fast ship container cable_car subway aircraft wheelchair scooter drone" speed="13.89" length="0.10" shape="262.43,828.86 262.43,828.86"/>
    </edge>
    <edge id=":1594647373_1" function="internal">
        <lane id=":1594647373_1_0" index="0" disallow="tram rail_urban rail rail_electric rail_fast ship container cable_car subway aircraft wheelchair scooter drone" speed="13.89" length="0.10" shape="260.06,826.70 260.06,826.70"/>
    </edge>
    <edge id=":1594647379_0" function="internal">
        <lane id=":1594647379_0_0" index="0" disallow="tram rail_urban rail rail_electric rail_fast ship container cable_car subway aircraft wheelchair scooter drone" speed="13.89" length="0.15" shape="259.97,831.56 259.87,831.67"/>
    </edge>
    <edge id=":1594647379_1" function="internal">
        <lane id=":1594647379_1_0" index="0" disallow="tram rail_urban rail rail_electric rail_fast ship container cable_car subway aircraft wheelchair scooter drone" speed="13.89" length="0.28" shape="257.42,829.62 257.60,829.40"/>
    </edge>
    <edge id=":229920517_0" function="internal">
        <lane id=":229920517_0_0" index="0" disallow="tram rail_urban rail rail_electric rail_fast ship container cable_car subway aircraft wheelchair scooter drone" speed="13.15" length="9.22" shape="213.83,845.71 215.21,847.80 216.15,849.31 217.33,850.50 219.46,851.63"/>
        <lane id=":229920517_0_1" index="1" disallow="tram rail_urban rail rail_electric rail_fast ship container cable_car subway aircraft wheelchair scooter drone" speed="13.89" length="9.22" shape="211.26,847.62 212.95,850.11 214.14,851.87 215.63,853.25 218.23,854.58"/>
    </edge>
    <edge id=":229920517_2" function="internal">
        <lane id=":229920517_2_0" index="0" disallow="tram rail_urban rail rail_electric rail_fast ship container cable_car subway aircraft wheelchair scooter drone" speed="10.65" length="9.90" shape="209.17,851.61 211.73,850.80 214.30,850.54 216.87,850.81 219.46,851.63"/>
        <lane id=":229920517_2_1" index="1" disallow="tram rail_urban rail rail_electric rail_fast ship container cable_car subway aircraft wheelchair scooter drone" speed="9.98" length="9.90" shape="209.24,855.05 211.69,854.23 214.01,853.87 216.18,853.99 218.23,854.58"/>
    </edge>
    <edge id=":229920520_0" function="internal">
        <lane id=":229920520_0_0" index="0" disallow="tram rail_urban rail rail_electric rail_fast ship container cable_car subway aircraft wheelchair scooter drone" speed="13.89" length="0.31" shape="227.93,882.38 227.70,882.15"/>
        <lane id=":229920520_0_1" index="1" disallow="tram rail_urban rail rail_electric rail_fast ship container cable_car subway aircraft wheelchair scooter drone" speed="13.89" length="0.31" shape="230.15,880.07 229.94,879.87"/>
    </edge>
    <edge id=":229920520_2" function="internal">
        <lane id=":229920520_2_0" index="0" disallow="tram rail_urban rail rail_electric rail_fast ship container cable_car subway aircraft wheelchair scooter drone" speed="13.89" length="0.26" shape="232.18,877.58 232.37,877.77"/>
    </edge>
    <edge id=":229921997_0" function="internal">
        <lane id=":229921997_0_0" index="0" disallow="tram rail_urban rail rail_electric rail_fast ship container cable_car subway aircraft wheelchair scooter drone" speed="13.89" length="14.83" shape="201.22,861.10 200.41,856.68 198.63,853.67 196.37,851.24 194.13,848.53"/>
    </edge>
    <edge id=":229921997_1" function="internal">
        <lane id=":229921997_1_0" index="0" disallow="tram rail_urban rail rail_electric rail_fast ship container cable_car subway aircraft wheelchair scooter drone" speed="20.83" length="17.46" shape="201.22,861.10 200.43,855.56 198.88,851.43 197.18,848.02 195.95,844.60"/>
    </edge>
    <edge id=":229921997_2" function="internal">
        <lane id=":229921997_2_0" index="0" disallow="tram rail_urban rail rail_electric rail_fast ship container cable_car subway aircraft wheelchair scooter drone" speed="8.87" length="6.59" shape="201.22,861.10 201.40,859.73 202.02,858.24 203.08,856.64 204.57,854.91"/>
        <lane id=":229921997_2_1" index="1" disallow="tram rail_urban rail rail_electric rail_fast ship container cable_car subway aircraft wheelchair scooter drone" speed="8.12" length="6.59" shape="204.41,861.01 204.61,860.23 205.24,859.16 206.30,857.81 207.79,856.18"/>
    </edge>
    <edge id=":229922000_0" function="internal">
        <lane id=":229922000_0_0" index="0" disallow="tram rail_urban rail rail_electric rail_fast ship container cable_car subway aircraft wheelchair scooter drone" speed="13.89" length="9.63" shape="181.03,831.86 179.00,829.86 177.49,828.59 175.76,827.65 173.11,826.63"/>
    </edge>
    <edge id=":229922000_1" function="internal">
        <lane id=":229922000_1_0" index="0" disallow="tram rail_urban rail rail_electric rail_fast ship container cable_car subway aircraft wheelchair scooter drone" speed="13.89" length="8.76" shape="174.17,823.62 176.54,824.34 178.21,824.63 179.92,824.79 182.39,825.11"/>
        <lane id=":229922000_1_1" index="1" disallow="tram rail_urban rail rail_electric rail_fast ship container cable_car subway aircraft wheelchair scooter drone" speed="13.89" length="8.76" shape="174.17,823.62 176.54,824.87 177.95,826.23 179.39,827.44 181.87,828.27"/>
    </edge>
    <edge id=":229922000_3" function="internal">
        <lane id=":229922000_3_0" index="0" disallow="tram rail_urban rail rail_electric rail_fast ship container cable_car subway aircraft wheelchair scooter drone" speed="3.65" length="1.44" shape="174.17,823.62 175.04,824.77"/>
    </edge>
    <edge id=":229922000_4" function="internal">
        <lane id=":229922000_4_0" index="0" disallow="tram rail_urban rail rail_electric rail_fast ship container cable_car subway aircraft wheelchair scooter drone" speed="3.65" length="3.23" shape="175.04,824.77 175.15,825.66 174.51,826.28 173.11,826.63"/>
    </edge>
    <edge id=":303589207_0" function="internal">
        <lane id=":303589207_0_0" index="0" disallow="tram rail_urban rail rail_electric rail_fast ship container cable_car subway aircraft wheelchair scooter drone" speed="3.65" length="4.67" shape="284.53,921.29 284.94,922.67 284.74,923.54 283.92,923.90 282.48,923.75"/>
    </edge>
    <edge id=":314892671_0" function="internal">
        <lane id=":314892671_0_0" index="0" disallow="tram rail_urban rail rail_electric rail_fast ship container cable_car subway aircraft wheelchair scooter drone" speed="3.65" length="4.67" shape="520.25,534.71 521.64,534.36 522.51,534.60 522.83,535.43 522.62,536.86"/>
    </edge>
    <edge id=":3191564147_0" function="internal">
        <lane id=":3191564147_0_0" index="0" disallow="tram rail_urban rail rail_electric rail_fast ship container cable_car subway aircraft wheelchair scooter drone" speed="13.89" length="0.10" shape="14.12,740.08 14.19,740.12"/>
    </edge>
    <edge id=":3191564147_1" function="internal">
        <lane id=":3191564147_1_0" index="0" disallow="tram rail_urban rail rail_electric rail_fast ship container cable_car subway aircraft wheelchair scooter drone" speed="13.89" length="0.10" shape="15.71,737.30 15.78,737.34"/>
    </edge>
    <edge id=":415801234_0" function="internal">
        <lane id=":415801234_0_0" index="0" disallow="tram rail_urban rail rail_electric rail_fast ship container cable_car subway aircraft wheelchair scooter drone" speed="13.89" length="4.60" shape="184.22,835.45 183.35,834.40 182.75,833.68 182.13,832.98 181.17,832.00"/>
    </edge>
    <edge id=":415801236_0" function="internal">
        <lane id=":415801236_0_0" index="0" disallow="tram rail_urban rail rail_electric rail_fast ship container cable_car subway aircraft wheelchair scooter drone" speed="13.89" length="6.91" shape="180.15,824.83 182.23,825.40 183.62,825.89 184.96,826.52 186.87,827.51"/>
        <lane id=":415801236_0_1" index="1" disallow="tram rail_urban rail rail_electric rail_fast ship container cable_car subway aircraft wheelchair scooter drone" speed="13.89" length="6.91" shape="179.35,827.93 181.22,828.44 182.48,828.89 183.68,829.46 185.41,830.35"/>
    </edge>
    <edge id=":415801244_0" function="internal">
        <lane id=":415801244_0_0" index="0" disallow="tram rail_urban rail rail_electric rail_fast ship container cable_car subway aircraft wheelchair scooter drone" speed="8.33" length="4.13" shape="199.80,824.46 199.63,825.67 199.52,826.51 199.36,827.33 199.01,828.50"/>
    </edge>
    <edge id=":415801244_1" function="internal">
        <lane id=":415801244_1_0" index="0" disallow="tram rail_urban rail rail_electric rail_fast ship container cable_car subway aircraft wheelchair scooter drone" speed="8.33" length="3.61" shape="195.97,827.50 196.27,826.47 196.41,825.76 196.49,825.02 196.64,823.96"/>
    </edge>
    <edge id=":415801607_0" function="internal">
        <lane id=":415801607_0_0" index="0" disallow="tram rail_urban rail rail_electric rail_fast ship container cable_car subway aircraft wheelchair scooter drone" speed="5.86" length="9.37" shape="250.93,842.35 249.36,844.79 249.09,846.78 250.14,848.32 252.49,849.42"/>
    </edge>
    <edge id=":415801607_1" function="internal">
        <lane id=":415801607_1_0" index="0" disallow="tram rail_urban rail rail_electric rail_fast ship container cable_car subway aircraft wheelchair scooter drone" speed="13.89" length="20.28" shape="250.93,842.35 248.56,845.40 245.90,848.88 242.45,852.90 237.70,857.56"/>
        <lane id=":415801607_1_1" index="1" disallow="tram rail_urban rail rail_electric rail_fast ship container cable_car subway aircraft wheelchair scooter drone" speed="13.89" length="20.28" shape="250.93,842.35 248.19,845.06 244.71,847.80 240.45,851.07 235.33,855.39"/>
    </edge>
    <edge id=":415801607_3" function="internal">
        <lane id=":415801607_3_0" index="0" disallow="tram rail_urban rail rail_electric rail_fast ship container cable_car subway aircraft wheelchair scooter drone" speed="3.65" length="1.44" shape="250.93,842.35 249.55,842.76"/>
    </edge>
    <edge id=":415801607_6" function="internal">
        <lane id=":415801607_6_0" index="0" disallow="tram rail_urban rail rail_electric rail_fast ship container cable_car subway aircraft wheelchair scooter drone" speed="3.65" length="3.23" shape="249.55,842.76 248.68,842.55 248.32,841.73 248.48,840.30"/>
    </edge>
    <edge id=":415801607_4" function="internal">
        <lane id=":415801607_4_0" index="0" disallow="tram rail_urban rail rail_electric rail_fast ship container cable_car subway aircraft wheelchair scooter drone" speed="17.69" length="19.31" shape="232.90,851.40 236.92,849.64 241.29,846.79 245.37,843.46 248.48,840.30"/>
    </edge>
    <edge id=":415801607_5" function="internal">
        <lane id=":415801607_5_0" index="0" disallow="tram rail_urban rail rail_electric rail_fast ship container cable_car subway aircraft wheelchair scooter drone" speed="19.56" length="4.89" shape="232.90,851.40 237.32,850.33 237.66,850.27"/>
    </edge>
    <edge id=":415801607_7" function="internal">
        <lane id=":415801607_7_0" index="0" disallow="tram rail_urban rail rail_electric rail_fast ship container cable_car subway aircraft wheelchair scooter drone" speed="19.56" length="14.95" shape="237.66,850.27 242.70,849.39 248.08,848.95 252.49,849.42"/>
    </edge>
    <edge id=":415801658_0" function="internal">
        <lane id=":415801658_0_0" index="0" disallow="tram rail_urban rail rail_electric rail_fast ship container cable_car subway aircraft wheelchair scooter drone" speed="13.89" length="4.92" shape="237.47,857.77 233.69,861.19"/>
        <lane id=":415801658_0_1" index="1" disallow="tram rail_urban rail rail_electric rail_fast ship container cable_car subway aircraft wheelchair scooter drone" speed="13.89" length="4.92" shape="235.04,855.65 231.52,858.83"/>
    </edge>
    <edge id=":415801811_0" function="internal">
        <lane id=":415801811_0_0" index="0" disallow="tram rail_urban rail rail_electric rail_fast ship container cable_car subway aircraft wheelchair scooter drone" speed="13.89" length="5.07" shape="205.61,888.25 202.17,891.98"/>
    </edge>
    <edge id=":5262639727_0" function="internal">
        <lane id=":5262639727_0_0" index="0" disallow="tram rail_urban rail rail_electric rail_fast ship container cable_car subway aircraft wheelchair scooter drone" speed="7.06" length="7.52" shape="224.06,878.57 222.26,877.07 220.55,876.19 218.91,875.91 217.36,876.23"/>
        <lane id=":5262639727_0_1" index="1" disallow="tram rail_urban rail rail_electric rail_fast ship container cable_car subway aircraft wheelchair scooter drone" speed="8.67" length="11.72" shape="226.30,876.29 223.69,874.20 221.05,873.04 218.37,872.80 215.65,873.48"/>
    </edge>
    <edge id=":5262639727_2" function="internal">
        <lane id=":5262639727_2_0" index="0" disallow="tram rail_urban rail rail_electric rail_fast ship container cable_car subway aircraft wheelchair scooter drone" speed="6.44" length="6.91" shape="226.50,867.90 226.09,869.29 226.29,870.77 227.11,872.34 228.54,874.01"/>
    </edge>
    <edge id=":5262639727_3" function="internal">
        <lane id=":5262639727_3_0" index="0" disallow="tram rail_urban rail rail_electric rail_fast ship container cable_car subway aircraft wheelchair scooter drone" speed="13.08" length="11.94" shape="226.50,867.90 224.64,871.17 222.98,873.22 220.78,874.69 217.36,876.23"/>
        <lane id=":5262639727_3_1" index="1" disallow="tram rail_urban rail rail_electric rail_fast ship container cable_car subway aircraft wheelchair scooter drone" speed="12.20" length="11.94" shape="223.68,866.39 222.06,869.20 220.57,870.93 218.64,872.16 215.65,873.48"/>
    </edge>
    <edge id=":9342598443_0" function="internal">
        <lane id=":9342598443_0_0" index="0" disallow="tram rail_urban rail rail_electric rail_fast ship container cable_car subway aircraft wheelchair scooter drone" speed="27.78" length="4.49" shape="228.33,852.43 232.71,851.45"/>
    </edge>
    <edge id=":9370294633_0" function="internal">
        <lane id=":9370294633_0_0" index="0" disallow="tram rail_urban rail rail_electric rail_fast ship container cable_car subway aircraft wheelchair scooter drone" speed="13.89" length="6.73" shape="263.10,907.57 261.28,906.70 259.69,906.81 258.10,906.93 256.27,906.07"/>
        <lane id=":9370294633_0_1" index="1" disallow="tram rail_urban rail rail_electric rail_fast ship container cable_car subway aircraft wheelchair scooter drone" speed="13.89" length="6.73" shape="263.10,907.57 258.30,903.60"/>
    </edge>
    <edge id=":9370294633_2" function="internal">
        <lane id=":9370294633_2_0" index="0" disallow="tram rail_urban rail rail_electric rail_fast ship container cable_car subway aircraft wheelchair scooter drone" speed="13.89" length="6.26" shape="260.33,901.13 265.16,905.11"/>
    </edge>
    <edge id=":9370294634_0" function="internal">
        <lane id=":9370294634_0_0" index="0" allow="pedestrian delivery bicycle" speed="6.57" length="6.73" shape="269.44,912.86 268.29,912.28 266.86,912.22 265.14,912.68 263.13,913.66"/>
    </edge>
    <edge id=":9370294634_1" function="internal">
        <lane id=":9370294634_1_0" index="0" disallow="tram rail_urban rail rail_electric rail_fast ship container cable_car subway aircraft wheelchair scooter drone" speed="13.89" length="8.06" shape="269.44,912.86 263.26,907.69"/>
    </edge>
    <edge id=":9370294634_2" function="internal">
        <lane id=":9370294634_2_0" index="0" disallow="tram rail_urban rail rail_electric rail_fast ship container cable_car subway aircraft wheelchair scooter drone" speed="13.89" length="8.05" shape="265.31,905.24 271.49,910.40"/>
    </edge>
    <edge id=":9370294634_3" function="internal">
        <lane id=":9370294634_3_0" index="0" allow="pedestrian delivery bicycle" speed="6.36" length="2.87" shape="265.31,905.24 267.07,907.36 267.09,907.47"/>
    </edge>
    <edge id=":9370294634_7" function="internal">
        <lane id=":9370294634_7_0" index="0" allow="pedestrian delivery bicycle" speed="6.36" length="8.03" shape="267.09,907.47 267.30,909.46 265.99,911.57 263.13,913.66"/>
    </edge>
    <edge id=":9370294634_4" function="internal">
        <lane id=":9370294634_4_0" index="0" allow="pedestrian delivery bicycle" speed="4.33" length="4.34" shape="261.53,910.89 262.87,909.98 263.60,909.14 263.73,908.38 263.26,907.69"/>
    </edge>
    <edge id=":9370294634_5" function="internal">
        <lane id=":9370294634_5_0" index="0" allow="pedestrian delivery bicycle" speed="8.09" length="10.63" shape="261.53,910.89 264.49,909.51 267.14,908.97 269.47,909.27 271.49,910.40"/>
    </edge>
    <edge id=":9370294634_6" function="internal">
        <lane id=":9370294634_6_0" index="0" allow="pedestrian delivery bicycle" speed="3.65" length="4.67" shape="261.53,910.89 262.97,910.98 263.72,911.48 263.77,912.37 263.13,913.66"/>
    </edge>
    <edge id=":9370294635_0" function="internal">
        <lane id=":9370294635_0_0" index="0" allow="pedestrian delivery bicycle" speed="3.65" length="4.67" shape="245.73,923.70 244.29,923.61 243.54,923.12 243.49,922.22 244.13,920.93"/>
    </edge>
    <edge id=":9590587748_0" function="internal">
        <lane id=":9590587748_0_0" index="0" disallow="tram rail_urban rail rail_electric rail_fast ship container cable_car subway aircraft wheelchair scooter drone" speed="13.89" length="0.51" shape="231.30,885.58 230.82,885.16"/>
        <lane id=":9590587748_0_1" index="1" disallow="tram rail_urban rail rail_electric rail_fast ship container cable_car subway aircraft wheelchair scooter drone" speed="13.89" length="0.51" shape="233.33,883.11 233.04,882.86"/>
    </edge>
    <edge id=":9590587748_2" function="internal">
        <lane id=":9590587748_2_0" index="0" disallow="tram rail_urban rail rail_electric rail_fast ship container cable_car subway aircraft wheelchair scooter drone" speed="13.89" length="0.13" shape="235.26,880.55 235.36,880.64"/>
    </edge>
    <edge id=":9590587758_0" function="internal">
        <lane id=":9590587758_0_0" index="0" disallow="tram rail_urban rail rail_electric rail_fast ship container cable_car subway aircraft wheelchair scooter drone" speed="15.28" length="15.95" shape="184.16,903.98 187.72,888.43"/>
    </edge>
    <edge id=":9590587758_1" function="internal">
        <lane id=":9590587758_1_0" index="0" disallow="tram rail_urban rail rail_electric rail_fast ship container cable_car subway aircraft wheelchair scooter drone" speed="21.32" length="16.45" shape="184.16,903.98 185.46,899.39 187.13,896.52 189.44,893.95 192.62,890.22"/>
        <lane id=":9590587758_1_1" index="1" disallow="tram rail_urban rail rail_electric rail_fast ship container cable_car subway aircraft wheelchair scooter drone" speed="20.66" length="15.42" shape="187.30,904.61 188.55,900.32 190.18,897.68 192.41,895.31 195.42,891.83"/>
    </edge>
    <edge id=":9590587764_0" function="internal">
        <lane id=":9590587764_0_0" index="0" disallow="tram rail_urban rail rail_electric rail_fast ship container cable_car subway aircraft wheelchair scooter drone" speed="13.89" length="8.86" shape="232.64,862.15 230.69,863.68 229.21,864.62 227.94,865.71 226.60,867.72"/>
        <lane id=":9590587764_0_1" index="1" disallow="tram rail_urban rail rail_electric rail_fast ship container cable_car subway aircraft wheelchair scooter drone" speed="13.89" length="8.86" shape="230.48,859.79 228.30,861.54 226.67,862.64 225.27,863.92 223.78,866.21"/>
    </edge>
    <edge id=":9590587764_2" function="internal">
        <lane id=":9590587764_2_0" index="0" disallow="tram rail_urban rail rail_electric rail_fast ship container cable_car subway aircraft wheelchair scooter drone" speed="9.83" length="8.73" shape="226.06,858.20 226.96,861.13 227.35,863.70 227.23,865.89 226.60,867.72"/>
        <lane id=":9590587764_2_1" index="1" disallow="tram rail_urban rail rail_electric rail_fast ship container cable_car subway aircraft wheelchair scooter drone" speed="8.75" length="8.73" shape="222.86,858.78 223.67,861.27 224.09,863.34 224.13,864.99 223.78,866.21"/>
    </edge>
    <edge id=":9590587765_0" function="internal">
        <lane id=":9590587765_0_0" index="0" disallow="tram rail_urban rail rail_electric rail_fast ship container cable_car subway aircraft wheelchair scooter drone" speed="9.90" length="5.41" shape="221.69,852.56 223.18,853.08 224.27,853.19 225.39,853.01 226.96,852.68"/>
    </edge>
    <edge id=":9590587765_1" function="internal">
        <lane id=":9590587765_1_0" index="0" disallow="tram rail_urban rail rail_electric rail_fast ship container cable_car subway aircraft wheelchair scooter drone" speed="7.90" length="4.93" shape="221.69,852.56 222.95,853.25 224.01,854.19 224.88,855.38 225.55,856.81"/>
        <lane id=":9590587765_1_1" index="1" disallow="tram rail_urban rail rail_electric rail_fast ship container cable_car subway aircraft wheelchair scooter drone" speed="6.58" length="4.93" shape="220.46,855.51 221.14,855.93 221.75,856.58 222.30,857.47 222.79,858.59"/>
    </edge>
    <edge id=":9590587766_0" function="internal">
        <lane id=":9590587766_0_0" index="0" disallow="tram rail_urban rail rail_electric rail_fast ship container cable_car subway aircraft wheelchair scooter drone" speed="13.89" length="8.63" shape="217.17,876.31 214.95,877.46 213.67,878.63 212.59,880.10 211.00,882.12"/>
    </edge>
    <edge id=":9590587766_1" function="internal">
        <lane id=":9590587766_1_0" index="0" disallow="tram rail_urban rail rail_electric rail_fast ship container cable_car subway aircraft wheelchair scooter drone" speed="9.96" length="7.55" shape="217.17,876.31 214.78,877.03 213.01,876.93 211.24,876.23 208.83,875.17"/>