<?xml version="1.0" encoding="UTF-8"?>

<!-- generated on 2024-09-03 01:38:34 by Eclipse SUMO netconvert Version 1.20.0
<configuration xmlns:xsi="http://www.w3.org/2001/XMLSchema-instance" xsi:noNamespaceSchemaLocation="http://sumo.dlr.de/xsd/netconvertConfiguration.xsd">

    <input>
        <osm-files value="train_files/roundabout/hard/osm_files/map(8).osm"/>
    </input>

    <output>
        <output-file value="train_files/roundabout/hard/outputs/map(8)_dict/map(8)/map(8).net.xml"/>
    </output>

    <projection>
        <proj.utm value="true"/>
    </projection>

    <building_defaults>
        <default.junctions.keep-clear value="false"/>
    </building_defaults>

</configuration>
-->

<net version="1.20" junctionCornerDetail="5" limitTurnSpeed="5.50" xmlns:xsi="http://www.w3.org/2001/XMLSchema-instance" xsi:noNamespaceSchemaLocation="http://sumo.dlr.de/xsd/net_file.xsd">

    <location netOffset="-446812.04,-5409391.33" convBoundary="0.00,0.00,2285.03,2140.55" origBoundary="2.275073,48.835235,2.306073,48.854665" projParameter="+proj=utm +zone=31 +ellps=WGS84 +datum=WGS84 +units=m +no_defs"/>

    <type id="highway.footway" priority="1" numLanes="1" speed="2.78" allow="pedestrian" oneway="1" width="2.00"/>
    <type id="highway.residential" priority="3" numLanes="1" speed="13.89" disallow="tram rail_urban rail rail_electric rail_fast ship container cable_car subway aircraft wheelchair scooter drone" oneway="0"/>
    <type id="highway.steps" priority="1" numLanes="1" speed="1.39" allow="pedestrian" oneway="1" width="2.00"/>
    <type id="highway.tertiary" priority="10" numLanes="1" speed="22.22" disallow="tram rail_urban rail rail_electric rail_fast ship container cable_car subway aircraft wheelchair scooter drone" oneway="0"/>
    <type id="railway.subway" priority="18" numLanes="1" speed="27.78" allow="subway" oneway="1"/>

    <edge id=":10228706164_0" function="internal">
        <lane id=":10228706164_0_0" index="0" disallow="tram rail_urban rail rail_electric rail_fast ship container cable_car subway aircraft wheelchair scooter drone" speed="8.33" length="0.10" shape="283.21,206.13 283.25,206.16"/>
    </edge>
    <edge id=":10228706164_1" function="internal">
        <lane id=":10228706164_1_0" index="0" disallow="tram rail_urban rail rail_electric rail_fast ship container cable_car subway aircraft wheelchair scooter drone" speed="8.33" length="0.10" shape="285.26,203.67 285.22,203.64"/>
    </edge>
    <edge id=":10228706167_0" function="internal">
        <lane id=":10228706167_0_0" index="0" disallow="tram rail_urban rail rail_electric rail_fast ship container cable_car subway aircraft wheelchair scooter drone" speed="8.33" length="4.78" shape="282.98,205.94 279.26,202.94"/>
    </edge>
    <edge id=":10228706167_1" function="internal">
        <lane id=":10228706167_1_0" index="0" disallow="tram rail_urban rail rail_electric rail_fast ship container cable_car subway aircraft wheelchair scooter drone" speed="8.33" length="4.78" shape="281.27,200.45 284.99,203.45"/>
    </edge>
    <edge id=":11561144079_0" function="internal">
        <lane id=":11561144079_0_0" index="0" disallow="tram rail_urban rail rail_electric rail_fast ship container cable_car subway aircraft wheelchair scooter drone" speed="8.33" length="0.15" shape="251.15,156.36 251.19,156.50"/>
        <lane id=":11561144079_0_1" index="1" disallow="tram rail_urban rail rail_electric rail_fast ship container cable_car subway aircraft wheelchair scooter drone" speed="8.33" length="0.15" shape="248.11,157.37 248.16,157.51"/>
    </edge>
    <edge id=":116135091_0" function="internal">
        <lane id=":116135091_0_0" index="0" allow="bus bicycle" speed="3.65" length="4.67" shape="154.02,213.61 152.62,213.26 151.98,212.63 152.09,211.75 152.96,210.59"/>
    </edge>
    <edge id=":11690876246_0" function="internal">
        <lane id=":11690876246_0_0" index="0" disallow="tram rail_urban rail rail_electric rail_fast ship container cable_car subway aircraft wheelchair scooter drone" speed="8.33" length="0.10" shape="281.76,164.99 281.76,164.99"/>
    </edge>
    <edge id=":1568010288_0" function="internal">
        <lane id=":1568010288_0_0" index="0" disallow="tram rail_urban rail rail_electric rail_fast ship container cable_car subway aircraft wheelchair scooter drone" speed="8.33" length="0.10" shape="252.72,202.95 252.72,202.96"/>
    </edge>
    <edge id=":1755229621_0" function="internal">
        <lane id=":1755229621_0_0" index="0" disallow="tram rail_urban rail rail_electric rail_fast ship container cable_car subway aircraft wheelchair scooter drone" speed="8.33" length="0.10" shape="442.87,335.15 442.87,335.15"/>
    </edge>
    <edge id=":1755229621_1" function="internal">
        <lane id=":1755229621_1_0" index="0" disallow="tram rail_urban rail rail_electric rail_fast ship container cable_car subway aircraft wheelchair scooter drone" speed="8.33" length="0.10" shape="444.88,332.66 444.88,332.66"/>
    </edge>
    <edge id=":1755229632_0" function="internal">
        <lane id=":1755229632_0_0" index="0" disallow="tram rail_urban rail rail_electric rail_fast ship container cable_car subway aircraft wheelchair scooter drone" speed="8.33" length="0.10" shape="453.89,344.05 453.89,344.05"/>
    </edge>
    <edge id=":1755229632_1" function="internal">
        <lane id=":1755229632_1_0" index="0" disallow="tram rail_urban rail rail_electric rail_fast ship container cable_car subway aircraft wheelchair scooter drone" speed="8.33" length="0.10" shape="455.90,341.56 455.90,341.56"/>
    </edge>
    <edge id=":1835618183_0" function="internal">
        <lane id=":1835618183_0_0" index="0" disallow="tram rail_urban rail rail_electric rail_fast ship container cable_car subway aircraft wheelchair scooter drone" speed="8.33" length="8.26" shape="256.73,188.28 254.42,189.00 252.76,189.17 251.05,189.02 248.61,188.76"/>
    </edge>
    <edge id=":1835618183_1" function="internal">
        <lane id=":1835618183_1_0" index="0" disallow="tram rail_urban rail rail_electric rail_fast ship container cable_car subway aircraft wheelchair scooter drone" speed="6.44" length="9.03" shape="253.62,194.82 253.54,192.33 252.68,190.50 251.04,189.30 248.61,188.76"/>
    </edge>
    <edge id=":1918830963_0" function="internal">
        <lane id=":1918830963_0_0" index="0" disallow="tram rail_urban rail rail_electric rail_fast ship container cable_car subway aircraft wheelchair scooter drone" speed="7.77" length="7.85" shape="264.06,190.65 262.00,189.20 260.12,188.30 258.43,187.98 256.92,188.22"/>
    </edge>
    <edge id=":1918830963_1" function="internal">
        <lane id=":1918830963_1_0" index="0" disallow="tram rail_urban rail rail_electric rail_fast ship container cable_car subway aircraft wheelchair scooter drone" speed="7.62" length="8.71" shape="264.63,180.05 264.14,182.70 264.22,184.93 264.86,186.75 266.07,188.16"/>
    </edge>
    <edge id=":1918830963_2" function="internal">
        <lane id=":1918830963_2_0" index="0" disallow="tram rail_urban rail rail_electric rail_fast ship container cable_car subway aircraft wheelchair scooter drone" speed="8.33" length="11.68" shape="264.63,180.05 263.55,182.78 261.90,185.05 259.69,186.86 256.92,188.22"/>
    </edge>
    <edge id=":2467777375_0" function="internal">
        <lane id=":2467777375_0_0" index="0" disallow="tram rail_urban rail rail_electric rail_fast ship container cable_car subway aircraft wheelchair scooter drone" speed="8.33" length="5.39" shape="232.73,185.70 227.65,187.50"/>
    </edge>
    <edge id=":2467777375_1" function="internal">
        <lane id=":2467777375_1_0" index="0" allow="bus bicycle" speed="8.33" length="5.39" shape="226.58,184.48 231.66,182.68"/>
    </edge>
    <edge id=":2467777375_2" function="internal">
        <lane id=":2467777375_2_0" index="0" allow="bus bicycle" speed="3.65" length="1.44" shape="226.58,184.48 227.98,184.83"/>
    </edge>
    <edge id=":2467777375_3" function="internal">
        <lane id=":2467777375_3_0" index="0" allow="bus bicycle" speed="3.65" length="3.23" shape="227.98,184.83 228.62,185.45 228.51,186.34 227.65,187.50"/>
    </edge>
    <edge id=":3071635720_0" function="internal">
        <lane id=":3071635720_0_0" index="0" disallow="tram rail_urban rail rail_electric rail_fast ship container cable_car subway aircraft wheelchair scooter drone" speed="8.33" length="0.10" shape="483.80,368.22 483.87,368.28"/>
    </edge>
    <edge id=":3071635720_1" function="internal">
        <lane id=":3071635720_1_0" index="0" disallow="tram rail_urban rail rail_electric rail_fast ship container cable_car subway aircraft wheelchair scooter drone" speed="8.33" length="0.10" shape="485.89,365.80 485.96,365.86"/>
    </edge>
    <edge id=":367316716_0" function="internal">
        <lane id=":367316716_0_0" index="0" disallow="tram rail_urban rail rail_electric rail_fast ship container cable_car subway aircraft wheelchair scooter drone" speed="8.33" length="9.27" shape="243.69,186.58 241.00,185.45 238.61,184.80 236.54,184.64 234.78,184.97"/>
    </edge>
    <edge id=":367316716_1" function="internal">
        <lane id=":367316716_1_0" index="0" disallow="tram rail_urban rail rail_electric rail_fast ship container cable_car subway aircraft wheelchair scooter drone" speed="8.33" length="13.98" shape="243.69,186.58 240.72,184.60 238.77,182.00 237.84,178.79 237.92,174.97"/>
    </edge>
    <edge id=":367316716_2" function="internal">
        <lane id=":367316716_2_0" index="0" allow="bus bicycle" speed="7.84" length="8.56" shape="233.71,181.95 235.24,181.07 236.45,179.61 237.35,177.58 237.92,174.97"/>
    </edge>
    <edge id=":367317322_0" function="internal">
        <lane id=":367317322_0_0" index="0" disallow="tram rail_urban rail rail_electric rail_fast ship container cable_car subway aircraft wheelchair scooter drone" speed="6.55" length="7.85" shape="269.29,169.21 267.41,170.15 266.16,171.48 265.54,173.19 265.54,175.29"/>
    </edge>
    <edge id=":367317322_1" function="internal">
        <lane id=":367317322_1_0" index="0" disallow="tram rail_urban rail rail_electric rail_fast ship container cable_car subway aircraft wheelchair scooter drone" speed="8.33" length="9.17" shape="262.54,166.75 263.90,169.09 264.68,170.80 265.14,172.61 265.54,175.29"/>
    </edge>
    <edge id=":367318534_0" function="internal">
        <lane id=":367318534_0_0" index="0" disallow="tram rail_urban rail rail_electric rail_fast ship container cable_car subway aircraft wheelchair scooter drone" speed="8.33" length="11.78" shape="237.94,174.87 238.07,171.80 237.54,169.44 236.52,166.98 235.21,163.60"/>
        <lane id=":367318534_0_1" index="1" disallow="tram rail_urban rail rail_electric rail_fast ship container cable_car subway aircraft wheelchair scooter drone" speed="8.33" length="12.52" shape="237.94,174.87 238.56,171.68 239.10,169.05 239.13,166.26 238.24,162.57"/>
        <lane id=":367318534_0_2" index="2" disallow="tram rail_urban rail rail_electric rail_fast ship container cable_car subway aircraft wheelchair scooter drone" speed="8.33" length="14.17" shape="237.94,174.87 239.07,171.62 240.70,168.79 241.78,165.67 241.27,161.54"/>
    </edge>
    <edge id=":367318534_3" function="internal">
        <lane id=":367318534_3_0" index="0" disallow="tram rail_urban rail rail_electric rail_fast ship container cable_car subway aircraft wheelchair scooter drone" speed="8.33" length="14.77" shape="237.94,174.87 238.93,170.49 240.52,167.05 242.69,164.55 245.46,162.99"/>
    </edge>
    <edge id=":367318543_0" function="internal">
        <lane id=":367318543_0_0" index="0" disallow="tram rail_urban rail rail_electric rail_fast ship container cable_car subway aircraft wheelchair scooter drone" speed="8.33" length="8.16" shape="251.24,156.64 252.15,158.74 253.34,160.40 254.80,161.63 256.54,162.43"/>
    </edge>
    <edge id=":367318543_1" function="internal">
        <lane id=":367318543_1_0" index="0" disallow="tram rail_urban rail rail_electric rail_fast ship container cable_car subway aircraft wheelchair scooter drone" speed="8.33" length="11.20" shape="245.65,162.92 248.66,161.93 251.07,161.49 253.49,161.65 256.54,162.43"/>
    </edge>
    <edge id=":6680468357_0" function="internal">
        <lane id=":6680468357_0_0" index="0" disallow="tram rail_urban rail rail_electric rail_fast ship container cable_car subway aircraft wheelchair scooter drone" speed="8.33" length="5.14" shape="280.75,165.34 275.88,166.98"/>
    </edge>
    <edge id=":6680468358_0" function="internal">
        <lane id=":6680468358_0_0" index="0" disallow="tram rail_urban rail rail_electric rail_fast ship container cable_car subway aircraft wheelchair scooter drone" speed="8.33" length="0.30" shape="220.07,118.31 219.98,118.03"/>
        <lane id=":6680468358_0_1" index="1" disallow="tram rail_urban rail rail_electric rail_fast ship container cable_car subway aircraft wheelchair scooter drone" speed="8.33" length="0.30" shape="223.11,117.30 223.01,117.02"/>
        <lane id=":6680468358_0_2" index="2" disallow="tram rail_urban rail rail_electric rail_fast ship container cable_car subway aircraft wheelchair scooter drone" speed="8.33" length="0.30" shape="226.14,116.29 226.05,116.00"/>
    </edge>
    <edge id=":6680468359_0" function="internal">
        <lane id=":6680468359_0_0" index="0" disallow="tram rail_urban rail rail_electric rail_fast ship container cable_car subway aircraft wheelchair scooter drone" speed="8.33" length="0.10" shape="236.56,112.49 236.56,112.49"/>
        <lane id=":6680468359_0_1" index="1" disallow="tram rail_urban rail rail_electric rail_fast ship container cable_car subway aircraft wheelchair scooter drone" speed="8.33" length="0.10" shape="233.52,113.50 233.52,113.50"/>
    </edge>
    <edge id=":6909115740_0" function="internal">
        <lane id=":6909115740_0_0" index="0" disallow="tram rail_urban rail rail_electric rail_fast ship container cable_car subway aircraft wheelchair scooter drone" speed="8.33" length="4.74" shape="252.17,207.97 252.69,203.26"/>
    </edge>
    <edge id=":6909119985_0" function="internal">
        <lane id=":6909119985_0_0" index="0" disallow="tram rail_urban rail rail_electric rail_fast ship container cable_car subway aircraft wheelchair scooter drone" speed="8.33" length="0.29" shape="238.13,334.58 238.16,334.29"/>
    </edge>
    <edge id=":7482802073_0" function="internal">
        <lane id=":7482802073_0_0" index="0" disallow="tram rail_urban rail rail_electric rail_fast ship container cable_car subway aircraft wheelchair scooter drone" speed="8.33" length="0.29" shape="220.71,120.24 220.64,120.00"/>
        <lane id=":7482802073_0_1" index="1" disallow="tram rail_urban rail rail_electric rail_fast ship container cable_car subway aircraft wheelchair scooter drone" speed="8.33" length="0.29" shape="223.76,119.27 223.67,118.99"/>
        <lane id=":7482802073_0_2" index="2" disallow="tram rail_urban rail rail_electric rail_fast ship container cable_car subway aircraft wheelchair scooter drone" speed="8.33" length="0.29" shape="226.81,118.30 226.71,117.98"/>
    </edge>

    <edge id="-1227455262" from="2467777375" to="367316716" priority="3" type="highway.residential">
        <lane id="-1227455262_0" index="0" allow="bus bicycle" speed="8.33" length="2.17" shape="231.66,182.68 233.71,181.95"/>
    </edge>
    <edge id="-12711223#0" from="10228706167" to="1918830963" priority="10" type="highway.tertiary">
        <lane id="-12711223#0_0" index="0" disallow="tram rail_urban rail rail_electric rail_fast ship container cable_car subway aircraft wheelchair scooter drone" speed="8.33" length="19.55" shape="279.26,202.94 264.06,190.65"/>
    </edge>
    <edge id="-12711223#1" from="10228706164" to="10228706167" priority="10" type="highway.tertiary">
        <lane id="-12711223#1_0" index="0" disallow="tram rail_urban rail rail_electric rail_fast ship container cable_car subway aircraft wheelchair scooter drone" speed="8.33" length="0.35" shape="283.25,206.16 282.98,205.94"/>
    </edge>
    <edge id="-12711223#2" from="1755229621" to="10228706164" priority="10" type="highway.tertiary" shape="443.88,333.91 433.85,325.80 424.77,318.47 412.63,308.66 407.91,304.84 327.34,239.72 325.53,238.26 317.73,231.97 312.44,227.69 284.10,204.79">
        <lane id="-12711223#2_0" index="0" disallow="tram rail_urban rail rail_electric rail_fast ship container cable_car subway aircraft wheelchair scooter drone" speed="8.33" length="205.27" shape="442.87,335.15 432.84,327.04 423.76,319.71 411.62,309.90 406.90,306.09 326.33,240.97 324.52,239.51 316.73,233.21 311.44,228.94 283.21,206.13"/>
    </edge>
    <edge id="-12711223#3" from="1755229632" to="1755229621" priority="10" type="highway.tertiary" shape="454.90,342.81 449.11,338.14 443.88,333.91">
        <lane id="-12711223#3_0" index="0" disallow="tram rail_urban rail rail_electric rail_fast ship container cable_car subway aircraft wheelchair scooter drone" speed="8.33" length="14.16" shape="453.89,344.05 448.11,339.38 442.87,335.15"/>
    </edge>
    <edge id="-12711223#4" from="3071635720" to="1755229632" priority="10" type="highway.tertiary" shape="484.88,367.04 483.01,365.52 454.90,342.81">
        <lane id="-12711223#4_0" index="0" disallow="tram rail_urban rail rail_electric rail_fast ship container cable_car subway aircraft wheelchair scooter drone" speed="8.33" length="38.55" shape="483.87,368.28 482.01,366.77 453.89,344.05"/>
    </edge>
    <edge id="-12711223#5" from="367332251" to="3071635720" priority="10" type="highway.tertiary">
        <lane id="-12711223#5_0" index="0" disallow="tram rail_urban rail rail_electric rail_fast ship container cable_car subway aircraft wheelchair scooter drone" speed="8.33" length="2.15" shape="485.39,369.67 483.80,368.22"/>
    </edge>
    <edge id="-32662001" from="116135091" to="2467777375" priority="3" type="highway.residential" shape="153.49,212.10 163.77,208.48 209.37,192.28 229.66,185.09">
        <lane id="-32662001_0" index="0" allow="bus bicycle" speed="8.33" length="78.11" shape="152.96,210.59 163.23,206.97 208.83,190.78 226.58,184.48"/>
    </edge>
    <edge id="108053053" from="260232944" to="1240426559" priority="1" type="highway.steps" spreadType="center">
        <lane id="108053053_0" index="0" allow="pedestrian" speed="1.39" length="3.60" width="2.00" shape="278.94,183.59 278.34,187.13"/>
    </edge>
    <edge id="1118399089#0" from="6680468346" to="10228706167" priority="1" type="highway.footway" spreadType="center">
        <lane id="1118399089#0_0" index="0" allow="pedestrian" speed="2.78" length="0.20" width="2.00" shape="284.96,200.10 284.83,200.25"/>
    </edge>
    <edge id="1118399089#1" from="10228706167" to="10228706166" priority="1" type="highway.footway" spreadType="center">
        <lane id="1118399089#1_0" index="0" allow="pedestrian" speed="2.78" length="0.20" width="2.00" shape="279.81,206.21 279.68,206.37"/>
    </edge>
    <edge id="1118399090#0" from="10228706168" to="6909115740" priority="1" type="highway.footway" spreadType="center">
        <lane id="1118399090#0_0" index="0" allow="pedestrian" speed="2.78" length="0.20" width="2.00" shape="254.89,205.77 254.69,205.74"/>
    </edge>
    <edge id="1118399090#1" from="6909115740" to="10228706169" priority="1" type="highway.footway" spreadType="center">
        <lane id="1118399090#1_0" index="0" allow="pedestrian" speed="2.78" length="0.32" width="2.00" shape="249.36,205.08 249.04,205.04"/>
    </edge>
    <edge id="1118399091" from="5540653736" to="2467777375" priority="1" type="highway.footway" spreadType="center">
        <lane id="1118399091_0" index="0" allow="pedestrian" speed="2.78" length="0.20" width="2.00" shape="228.18,181.63 228.26,181.81"/>
    </edge>
    <edge id="1118399092" from="10228706171" to="6680468356" priority="1" type="highway.footway" spreadType="center">
        <lane id="1118399092_0" index="0" allow="pedestrian" speed="2.78" length="0.20" width="2.00" shape="276.82,162.29 276.75,162.11"/>
    </edge>
    <edge id="1118849177" from="6680468343" to="10232645960" priority="1" type="highway.footway" spreadType="center" shape="282.64,172.19 298.08,166.56 299.83,166.91">
        <lane id="1118849177_0" index="0" allow="pedestrian" speed="2.78" length="15.85" width="2.00" shape="284.62,171.47 298.08,166.56 299.58,166.86"/>
    </edge>
    <edge id="1118849178" from="10232645960" to="10228706165" priority="1" type="highway.footway" spreadType="center" shape="299.83,166.91 350.74,208.61 327.85,229.23 322.40,225.33 286.76,197.82">
        <lane id="1118849178_0" index="0" allow="pedestrian" speed="2.78" length="145.59" width="2.00" shape="300.02,167.07 350.74,208.61 327.85,229.23 322.40,225.33 288.74,199.35"/>
    </edge>
    <edge id="1118849182" from="10228706166" to="10232645969" priority="1" type="highway.footway" spreadType="center">
        <lane id="1118849182_0" index="0" allow="pedestrian" speed="2.78" length="2.25" width="2.00" shape="280.22,205.73 279.09,207.67"/>
    </edge>
    <edge id="1118849183" from="10228706168" to="10232645970" priority="1" type="highway.footway" spreadType="center">
        <lane id="1118849183_0" index="0" allow="pedestrian" speed="2.78" length="1.56" width="2.00" shape="258.62,206.84 259.99,207.58"/>
    </edge>
    <edge id="1118849184#0" from="10232645970" to="10232645969" priority="1" type="highway.footway" spreadType="center" shape="261.91,208.61 271.51,205.02 277.76,209.97">
        <lane id="1118849184#0_0" index="0" allow="pedestrian" speed="2.78" length="13.44" width="2.00" shape="263.90,207.87 271.51,205.02 275.67,208.32"/>
    </edge>
    <edge id="1118849184#1" from="10232645969" to="10232645970" priority="1" type="highway.footway" spreadType="center" shape="277.76,209.97 312.77,238.27 393.59,303.60 402.90,311.09 419.84,324.82 428.88,332.13 439.29,340.54 449.82,348.99 458.95,356.43 478.35,372.11 480.36,374.62 505.55,406.00 512.82,415.06 515.44,418.32 519.94,423.93 554.85,469.86 577.99,496.23 560.59,516.08 560.86,517.99 509.65,571.23 506.39,571.93 502.66,571.50 415.11,503.40 410.45,499.97 404.69,499.76 350.20,531.40 348.75,530.38 304.77,454.43 258.67,374.85 254.42,367.52 252.88,364.85 245.98,352.93 247.49,339.19 247.88,335.68 248.48,330.23 261.91,208.61">
        <lane id="1118849184#1_0" index="0" allow="pedestrian" speed="2.78" length="1059.43" width="2.00" shape="279.59,211.45 312.77,238.27 393.59,303.60 402.90,311.09 419.84,324.82 428.88,332.13 439.29,340.54 449.82,348.99 458.95,356.43 478.35,372.11 480.36,374.62 505.55,406.00 512.82,415.06 515.44,418.32 519.94,423.93 554.85,469.86 577.99,496.23 560.59,516.08 560.86,517.99 509.65,571.23 506.39,571.93 502.66,571.50 415.11,503.40 410.45,499.97 404.69,499.76 350.20,531.40 348.75,530.38 304.77,454.43 258.67,374.85 254.42,367.52 252.88,364.85 245.98,352.93 247.49,339.19 247.88,335.68 248.48,330.23 261.67,210.77"/>
    </edge>
    <edge id="1156586970#0" from="10755854570" to="10755854594" priority="1" type="highway.footway" spreadType="center" shape="0.00,261.34 16.68,264.70 103.30,221.79 138.00,208.18 141.56,207.59 161.92,204.22 166.35,203.49 225.87,181.80">
        <lane id="1156586970#0_0" index="0" allow="pedestrian" speed="2.78" length="237.02" width="2.00" shape="0.00,261.34 16.68,264.70 103.30,221.79 138.00,208.18 141.56,207.59 161.92,204.22 166.35,203.49 220.21,183.86"/>
    </edge>
    <edge id="1156586970#1" from="10755854594" to="10755854596" priority="1" type="highway.footway" spreadType="center" shape="225.87,181.80 233.29,163.81 217.28,119.17">
        <lane id="1156586970#1_0" index="0" allow="pedestrian" speed="2.78" length="64.13" width="2.00" shape="226.92,179.25 233.29,163.81 217.28,119.17"/>
    </edge>
    <edge id="1156589023#0" from="10755865432" to="10755865437" priority="1" type="highway.footway" spreadType="center" shape="165.43,217.32 166.11,214.78 231.72,190.20">
        <lane id="1156589023#0_0" index="0" allow="pedestrian" speed="2.78" length="69.82" width="2.00" shape="165.54,216.92 166.11,214.78 229.42,191.07"/>
    </edge>
    <edge id="1156589023#1" from="10755865437" to="10755865440" priority="1" type="highway.footway" spreadType="center">
        <lane id="1156589023#1_0" index="0" allow="pedestrian" speed="2.78" length="11.29" width="2.00" shape="233.30,191.60 241.73,199.11"/>
    </edge>
    <edge id="1156589023#2" from="10755865440" to="10755865438" priority="1" type="highway.footway" spreadType="center">
        <lane id="1156589023#2_0" index="0" allow="pedestrian" speed="2.78" length="1.08" width="2.00" shape="243.99,202.13 244.50,203.08"/>
    </edge>
    <edge id="1156589023#3" from="10755865438" to="10755865432" priority="1" type="highway.footway" spreadType="center" shape="245.47,204.93 244.53,217.99 231.96,320.73 230.09,323.70 226.66,322.01 219.25,309.05 165.43,217.32">
        <lane id="1156589023#3_0" index="0" allow="pedestrian" speed="2.78" length="242.34" width="2.00" shape="245.29,207.38 244.53,217.99 231.96,320.73 230.09,323.70 226.66,322.01 219.25,309.05 165.65,217.68"/>
    </edge>
    <edge id="1156589024" from="10228706169" to="10755865438" priority="1" type="highway.footway" spreadType="center">
        <lane id="1156589024_0" index="0" allow="pedestrian" speed="2.78" length="1.11" width="2.00" shape="249.04,205.04 247.93,205.00"/>
    </edge>
    <edge id="1156589025" from="10755865440" to="1497637157" priority="1" type="highway.footway" spreadType="center" shape="242.99,200.22 244.20,198.70 243.06,197.77">
        <lane id="1156589025_0" index="0" allow="pedestrian" speed="2.78" length="1.49" width="2.00" shape="244.10,198.83 244.20,198.70 243.17,197.86"/>
    </edge>
    <edge id="1156589026" from="10228706170" to="10755865437" priority="1" type="highway.footway" spreadType="center">
        <lane id="1156589026_0" index="0" allow="pedestrian" speed="2.78" length="0.20" width="2.00" shape="231.15,188.45 231.22,188.64"/>
    </edge>
    <edge id="1156589027" from="10755854594" to="5540653736" priority="1" type="highway.footway" spreadType="center">
        <lane id="1156589027_0" index="0" allow="pedestrian" speed="2.78" length="0.20" width="2.00" shape="228.14,182.18 228.34,182.21"/>
    </edge>
    <edge id="1156589028" from="6680468356" to="2822703659" priority="1" type="highway.footway" spreadType="center" shape="275.79,159.64 279.40,159.80 377.67,123.81 422.61,107.34">
        <lane id="1156589028_0" index="0" allow="pedestrian" speed="2.78" length="153.10" width="2.00" shape="278.82,159.78 279.40,159.80 377.67,123.81 422.61,107.34"/>
    </edge>
    <edge id="1227455261" from="2467777375" to="10228706170" priority="1" type="highway.footway" spreadType="center">
        <lane id="1227455261_0" index="0" allow="pedestrian" speed="2.78" length="0.31" width="2.00" shape="231.39,189.19 231.51,189.48"/>
    </edge>
    <edge id="1227455262" from="367316716" to="2467777375" priority="3" type="highway.residential">
        <lane id="1227455262_0" index="0" disallow="tram rail_urban rail rail_electric rail_fast ship container cable_car subway aircraft wheelchair scooter drone" speed="8.33" length="2.17" shape="234.78,184.97 232.73,185.70"/>
    </edge>
    <edge id="12711223#0" from="1918830963" to="10228706167" priority="10" type="highway.tertiary">
        <lane id="12711223#0_0" index="0" disallow="tram rail_urban rail rail_electric rail_fast ship container cable_car subway aircraft wheelchair scooter drone" speed="8.33" length="19.55" shape="266.07,188.16 281.27,200.45"/>
    </edge>
    <edge id="12711223#1" from="10228706167" to="10228706164" priority="10" type="highway.tertiary">
        <lane id="12711223#1_0" index="0" disallow="tram rail_urban rail rail_electric rail_fast ship container cable_car subway aircraft wheelchair scooter drone" speed="8.33" length="0.35" shape="284.99,203.45 285.26,203.67"/>
    </edge>
    <edge id="12711223#2" from="10228706164" to="1755229621" priority="10" type="highway.tertiary" shape="284.10,204.79 312.44,227.69 317.73,231.97 325.53,238.26 327.34,239.72 407.91,304.84 412.63,308.66 424.77,318.47 433.85,325.80 443.88,333.91">
        <lane id="12711223#2_0" index="0" disallow="tram rail_urban rail rail_electric rail_fast ship container cable_car subway aircraft wheelchair scooter drone" speed="8.33" length="205.28" shape="285.22,203.64 313.45,226.45 318.74,230.72 326.53,237.02 328.34,238.48 408.91,303.60 413.63,307.41 425.77,317.22 434.86,324.55 444.88,332.66"/>
    </edge>
    <edge id="12711223#3" from="1755229621" to="1755229632" priority="10" type="highway.tertiary" shape="443.88,333.91 449.11,338.14 454.90,342.81">
        <lane id="12711223#3_0" index="0" disallow="tram rail_urban rail rail_electric rail_fast ship container cable_car subway aircraft wheelchair scooter drone" speed="8.33" length="14.16" shape="444.88,332.66 450.12,336.89 455.90,341.56"/>
    </edge>
    <edge id="12711223#4" from="1755229632" to="3071635720" priority="10" type="highway.tertiary" shape="454.90,342.81 483.01,365.52 484.88,367.04">
        <lane id="12711223#4_0" index="0" disallow="tram rail_urban rail rail_electric rail_fast ship container cable_car subway aircraft wheelchair scooter drone" speed="8.33" length="38.55" shape="455.90,341.56 484.02,364.28 485.89,365.80"/>
    </edge>
    <edge id="12711223#5" from="3071635720" to="367332251" priority="10" type="highway.tertiary">
        <lane id="12711223#5_0" index="0" disallow="tram rail_urban rail rail_electric rail_fast ship container cable_car subway aircraft wheelchair scooter drone" speed="8.33" length="2.15" shape="485.96,365.86 487.55,367.31"/>
    </edge>
    <edge id="136530817" from="1497637157" to="260232954" priority="1" type="highway.steps" spreadType="center">
        <lane id="136530817_0" index="0" allow="pedestrian" speed="1.39" length="3.46" width="2.00" shape="242.95,197.68 240.23,195.54"/>
    </edge>
    <edge id="143283142#0" from="6680468346" to="10228706165" priority="1" type="highway.footway" spreadType="center">