<?xml version="1.0" encoding="UTF-8"?>

<!-- generated on 2024-09-03 01:38:21.244910 by randomTrips.py UNKNOWN
<configuration>
    <net-file value="train_files/roundabout/hard/outputs/map(36)_dict/map(36)/map(36).net.xml"/>
    <output-trip-file value="train_files/roundabout/hard/outputs/map(36)_dict/map(36)/map(36).trips.xml"/>
    <fringe-factor value="max"/>
    <validate value="True"/>
    <period value="0.72"/>
</configuration>
-->

<!-- generated on 2024-09-03 01:38:21 by Eclipse SUMO duarouter Version 1.20.0
<configuration xmlns:xsi="http://www.w3.org/2001/XMLSchema-instance" xsi:noNamespaceSchemaLocation="http://sumo.dlr.de/xsd/duarouterConfiguration.xsd">

    <input>
        <net-file value="train_files/roundabout/hard/outputs/map(36)_dict/map(36)/map(36).net.xml"/>
        <route-files value="train_files/roundabout/hard/outputs/map(36)_dict/map(36)/map(36).trips.xml"/>
    </input>

    <output>
        <output-file value="train_files/roundabout/hard/outputs/map(36)_dict/map(36)/map(36).trips.xml.tmp"/>
        <alternatives-output value="NUL"/>
        <write-trips value="true"/>
    </output>

    <time>
        <begin value="0"/>
        <end value="3600"/>
    </time>

    <report>
        <no-warnings value="true"/>
        <ignore-errors value="true"/>
        <no-step-log value="true"/>
    </report>

</configuration>
-->

<routes xmlns:xsi="http://www.w3.org/2001/XMLSchema-instance" xsi:noNamespaceSchemaLocation="http://sumo.dlr.de/xsd/routes_file.xsd">
    <trip id="1" depart="0.72" from="1056276226#0" to="-97637311#0"/>
    <trip id="5" depart="3.60" from="1056276226#0" to="902979328#1"/>
    <trip id="7" depart="5.04" from="744825961#0" to="902979328#1"/>
    <trip id="8" depart="5.76" from="1056276226#0" to="902979328#1"/>
    <trip id="9" depart="6.48" from="744825964#0" to="-744825964#0"/>
    <trip id="13" depart="9.36" from="-744825973" to="-744825964#0"/>
    <trip id="14" depart="10.08" from="97637311#0" to="902979328#1"/>
    <trip id="16" depart="11.52" from="744825961#0" to="984589551#2"/>
    <trip id="17" depart="12.24" from="624410090" to="902979328#1"/>
    <trip id="19" depart="13.68" from="97637311#0" to="902979328#1"/>
    <trip id="20" depart="14.40" from="744825964#0" to="-744825964#0"/>
    <trip id="21" depart="15.12" from="1056276226#0" to="-97637311#0"/>
    <trip id="25" depart="18.00" from="624410090" to="-97637311#0"/>
    <trip id="26" depart="18.72" from="1056276226#0" to="984589551#2"/>
    <trip id="27" depart="19.44" from="744825961#0" to="902979328#1"/>
    <trip id="28" depart="20.16" from="1056276226#0" to="946621531"/>
    <trip id="29" depart="20.88" from="-744825973" to="744825973"/>
    <trip id="30" depart="21.60" from="97637311#0" to="902979328#1"/>
    <trip id="31" depart="22.32" from="744825961#0" to="946621531"/>
    <trip id="32" depart="23.04" from="97637311#0" to="946621531"/>
    <trip id="34" depart="24.48" from="1056276226#0" to="-97637311#0"/>
    <trip id="35" depart="25.20" from="1056276226#0" to="984589551#2"/>
    <trip id="36" depart="25.92" from="97637311#0" to="-97637311#0"/>
    <trip id="39" depart="28.08" from="1056276226#0" to="-97637311#0"/>
    <trip id="40" depart="28.80" from="744825961#0" to="-97637311#0"/>
    <trip id="41" depart="29.52" from="744825961#0" to="984589551#2"/>
    <trip id="42" depart="30.24" from="624410090" to="-97637311#0"/>
    <trip id="43" depart="30.96" from="97637311#0" to="902979328#1"/>
    <trip id="44" depart="31.68" from="-744825973" to="-744825964#0"/>
    <trip id="46" depart="33.12" from="744825964#0" to="744825973"/>
    <trip id="47" depart="33.84" from="-744825973" to="744825973"/>
    <trip id="48" depart="34.56" from="97637311#0" to="902979328#1"/>
    <trip id="49" depart="35.28" from="97637311#0" to="984589551#2"/>
    <trip id="52" depart="37.44" from="1056276226#0" to="902979328#1"/>
    <trip id="53" depart="38.16" from="-744825973" to="744825973"/>
    <trip id="54" depart="38.88" from="624410090" to="984589551#2"/>
    <trip id="55" depart="39.60" from="97637311#0" to="-97637311#0"/>
    <trip id="56" depart="40.32" from="744825961#0" to="-97637311#0"/>
    <trip id="57" depart="41.04" from="97637311#0" to="984589551#2"/>
    <trip id="58" depart="41.76" from="1056276226#0" to="902979328#1"/>
    <trip id="64" depart="46.08" from="97637311#0" to="946621531"/>
    <trip id="66" depart="47.52" from="97637311#0" to="984589551#2"/>
    <trip id="67" depart="48.24" from="-744825973" to="744825973"/>
    <trip id="69" depart="49.68" from="744825964#0" to="-744825964#0"/>
    <trip id="70" depart="50.40" from="624410090" to="902979328#1"/>
    <trip id="71" depart="51.12" from="1056276226#0" to="984589551#2"/>
    <trip id="72" depart="51.84" from="624410090" to="-97637311#0"/>
    <trip id="73" depart="52.56" from="744825961#0" to="946621531"/>
    <trip id="74" depart="53.28" from="1056276226#0" to="-97637311#0"/>
    <trip id="75" depart="54.00" from="97637311#0" to="902979328#1"/>
    <trip id="76" depart="54.72" from="624410090" to="902979328#1"/>
    <trip id="78" depart="56.16" from="624410090" to="902979328#1"/>
    <trip id="79" depart="56.88" from="1056276226#0" to="-97637311#0"/>
    <trip id="81" depart="58.32" from="1056276226#0" to="984589551#2"/>
    <trip id="83" depart="59.76" from="1056276226#0" to="946621531"/>
    <trip id="85" depart="61.20" from="97637311#0" to="902979328#1"/>
    <trip id="86" depart="61.92" from="624410090" to="946621531"/>
    <trip id="88" depart="63.36" from="-744825973" to="744825973"/>
    <trip id="93" depart="66.96" from="97637311#0" to="-97637311#0"/>
    <trip id="95" depart="68.40" from="624410090" to="-97637311#0"/>
    <trip id="96" depart="69.12" from="1056276226#0" to="984589551#2"/>
    <trip id="97" depart="69.84" from="624410090" to="984589551#2"/>
    <trip id="99" depart="71.28" from="97637311#0" to="984589551#2"/>
    <trip id="100" depart="72.00" from="97637311#0" to="984589551#2"/>
    <trip id="102" depart="73.44" from="624410090" to="-97637311#0"/>
    <trip id="104" depart="74.88" from="624410090" to="984589551#2"/>
    <trip id="105" depart="75.60" from="1056276226#0" to="946621531"/>
    <trip id="107" depart="77.04" from="97637311#0" to="984589551#2"/>
    <trip id="108" depart="77.76" from="744825961#0" to="946621531"/>
    <trip id="110" depart="79.20" from="97637311#0" to="902979328#1"/>
    <trip id="111" depart="79.92" from="744825961#0" to="946621531"/>
    <trip id="113" depart="81.36" from="744825961#0" to="984589551#2"/>
    <trip id="116" depart="83.52" from="744825961#0" to="946621531"/>
    <trip id="118" depart="84.96" from="97637311#0" to="-97637311#0"/>
    <trip id="119" depart="85.68" from="744825961#0" to="902979328#1"/>
    <trip id="120" depart="86.40" from="624410090" to="902979328#1"/>
    <trip id="121" depart="87.12" from="744825961#0" to="984589551#2"/>
    <trip id="122" depart="87.84" from="1056276226#0" to="946621531"/>
    <trip id="125" depart="90.00" from="1056276226#0" to="946621531"/>
    <trip id="126" depart="90.72" from="-744825973" to="744825973"/>
    <trip id="127" depart="91.44" from="97637311#0" to="984589551#2"/>
    <trip id="129" depart="92.88" from="1056276226#0" to="984589551#2"/>
    <trip id="130" depart="93.60" from="97637311#0" to="984589551#2"/>
    <trip id="132" depart="95.04" from="97637311#0" to="946621531"/>
    <trip id="133" depart="95.76" from="744825961#0" to="984589551#2"/>
    <trip id="136" depart="97.92" from="744825961#0" to="984589551#2"/>
    <trip id="137" depart="98.64" from="-744825973" to="-744825964#0"/>
    <trip id="139" depart="100.08" from="1056276226#0" to="902979328#1"/>
    <trip id="141" depart="101.52" from="744825961#0" to="-97637311#0"/>
    <trip id="142" depart="102.24" from="624410090" to="984589551#2"/>
    <trip id="144" depart="103.68" from="624410090" to="-97637311#0"/>
    <trip id="146" depart="105.12" from="744825961#0" to="-97637311#0"/>
    <trip id="150" depart="108.00" from="97637311#0" to="902979328#1"/>
    <trip id="151" depart="108.72" from="97637311#0" to="902979328#1"/>
    <trip id="152" depart="109.44" from="-744825973" to="-744825964#0"/>
    <trip id="153" depart="110.16" from="1056276226#0" to="984589551#2"/>
    <trip id="155" depart="111.60" from="97637311#0" to="-97637311#0"/>
    <trip id="158" depart="113.76" from="624410090" to="902979328#1"/>
    <trip id="160" depart="115.20" from="97637311#0" to="984589551#2"/>
    <trip id="163" depart="117.36" from="1056276226#0" to="984589551#2"/>
    <trip id="166" depart="119.52" from="744825964#0" to="-744825964#0"/>
    <trip id="167" depart="120.24" from="97637311#0" to="984589551#2"/>
    <trip id="168" depart="120.96" from="1056276226#0" to="946621531"/>
    <trip id="169" depart="121.68" from="624410090" to="-97637311#0"/>
    <trip id="172" depart="123.84" from="1056276226#0" to="984589551#2"/>
    <trip id="173" depart="124.56" from="97637311#0" to="-97637311#0"/>
    <trip id="175" depart="126.00" from="97637311#0" to="902979328#1"/>
    <trip id="177" depart="127.44" from="97637311#0" to="-97637311#0"/>
    <trip id="178" depart="128.16" from="97637311#0" to="-97637311#0"/>
    <trip id="179" depart="128.88" from="-744825973" to="744825973"/>
    <trip id="181" depart="130.32" from="744825961#0" to="902979328#1"/>
    <trip id="182" depart="131.04" from="624410090" to="902979328#1"/>
    <trip id="183" depart="131.76" from="1056276226#0" to="946621531"/>
    <trip id="185" depart="133.20" from="744825961#0" to="946621531"/>
    <trip id="188" depart="135.36" from="744825961#0" to="-97637311#0"/>
    <trip id="189" depart="136.08" from="1056276226#0" to="984589551#2"/>
    <trip id="192" depart="138.24" from="624410090" to="-97637311#0"/>
    <trip id="193" depart="138.96" from="-744825973" to="744825973"/>
    <trip id="194" depart="139.68" from="97637311#0" to="946621531"/>
    <trip id="195" depart="140.40" from="97637311#0" to="902979328#1"/>
    <trip id="196" depart="141.12" from="1056276226#0" to="902979328#1"/>
    <trip id="198" depart="142.56" from="624410090" to="902979328#1"/>
    <trip id="200" depart="144.00" from="624410090" to="-97637311#0"/>
    <trip id="201" depart="144.72" from="624410090" to="984589551#2"/>
    <trip id="210" depart="151.20" from="624410090" to="902979328#1"/>
    <trip id="211" depart="151.92" from="1056276226#0" to="946621531"/>
    <trip id="212" depart="152.64" from="624410090" to="-97637311#0"/>
    <trip id="215" depart="154.80" from="-744825973" to="744825973"/>
    <trip id="216" depart="155.52" from="1056276226#0" to="984589551#2"/>
    <trip id="218" depart="156.96" from="1056276226#0" to="984589551#2"/>
    <trip id="219" depart="157.68" from="624410090" to="946621531"/>
    <trip id="221" depart="159.12" from="744825961#0" to="984589551#2"/>
    <trip id="222" depart="159.84" from="97637311#0" to="902979328#1"/>
    <trip id="225" depart="162.00" from="97637311#0" to="946621531"/>
    <trip id="226" depart="162.72" from="624410090" to="-97637311#0"/>
    <trip id="227" depart="163.44" from="1056276226#0" to="902979328#1"/>
    <trip id="229" depart="164.88" from="744825961#0" to="-97637311#0"/>
    <trip id="231" depart="166.32" from="1056276226#0" to="-97637311#0"/>
    <trip id="233" depart="167.76" from="1056276226#0" to="946621531"/>
    <trip id="234" depart="168.48" from="744825964#0" to="-744825964#0"/>
    <trip id="235" depart="169.20" from="624410090" to="902979328#1"/>
    <trip id="236" depart="169.92" from="624410090" to="-97637311#0"/>
    <trip id="237" depart="170.64" from="624410090" to="984589551#2"/>
    <trip id="238" depart="171.36" from="744825961#0" to="946621531"/>
    <trip id="239" depart="172.08" from="97637311#0" to="946621531"/>
    <trip id="241" depart="173.52" from="624410090" to="946621531"/>
    <trip id="242" depart="174.24" from="97637311#0" to="984589551#2"/>
    <trip id="243" depart="174.96" from="624410090" to="946621531"/>
    <trip id="244" depart="175.68" from="744825961#0" to="902979328#1"/>
    <trip id="245" depart="176.40" from="1056276226#0" to="-97637311#0"/>
    <trip id="247" depart="177.84" from="624410090" to="946621531"/>
    <trip id="251" depart="180.72" from="624410090" to="902979328#1"/>
    <trip id="253" depart="182.16" from="-744825973" to="744825973"/>
    <trip id="254" depart="182.88" from="-744825973" to="744825973"/>
    <trip id="255" depart="183.60" from="1056276226#0" to="-97637311#0"/>
    <trip id="256" depart="184.32" from="744825964#0" to="744825973"/>
    <trip id="261" depart="187.92" from="744825961#0" to="946621531"/>
    <trip id="262" depart="188.64" from="744825961#0" to="946621531"/>
    <trip id="263" depart="189.36" from="97637311#0" to="-97637311#0"/>
    <trip id="264" depart="190.08" from="-744825973" to="-744825964#0"/>
    <trip id="266" depart="191.52" from="744825961#0" to="-97637311#0"/>
    <trip id="268" depart="192.96" from="1056276226#0" to="902979328#1"/>
    <trip id="269" depart="193.68" from="744825964#0" to="-744825964#0"/>
    <trip id="271" depart="195.12" from="-744825973" to="-744825964#0"/>
    <trip id="272" depart="195.84" from="1056276226#0" to="946621531"/>
    <trip id="274" depart="197.28" from="744825964#0" to="-744825964#0"/>
    <trip id="277" depart="199.44" from="97637311#0" to="902979328#1"/>
    <trip id="279" depart="200.88" from="744825964#0" to="744825973"/>
    <trip id="282" depart="203.04" from="97637311#0" to="946621531"/>
    <trip id="284" depart="204.48" from="744825961#0" to="946621531"/>
    <trip id="285" depart="205.20" from="744825964#0" to="744825973"/>
    <trip id="287" depart="206.64" from="1056276226#0" to="946621531"/>
    <trip id="289" depart="208.08" from="624410090" to="946621531"/>
    <trip id="290" depart="208.80" from="1056276226#0" to="984589551#2"/>
    <trip id="291" depart="209.52" from="744825964#0" to="-744825964#0"/>
    <trip id="292" depart="210.24" from="97637311#0" to="-97637311#0"/>
    <trip id="293" depart="210.96" from="624410090" to="902979328#1"/>
    <trip id="295" depart="212.40" from="97637311#0" to="-97637311#0"/>
    <trip id="296" depart="213.12" from="1056276226#0" to="946621531"/>
    <trip id="297" depart="213.84" from="624410090" to="984589551#2"/>
    <trip id="301" depart="216.72" from="624410090" to="946621531"/>
    <trip id="303" depart="218.16" from="624410090" to="946621531"/>
    <trip id="312" depart="224.64" from="744825961#0" to="946621531"/>
    <trip id="313" depart="225.36" from="1056276226#0" to="-97637311#0"/>
    <trip id="314" depart="226.08" from="624410090" to="946621531"/>
    <trip id="315" depart="226.80" from="97637311#0" to="902979328#1"/>
    <trip id="317" depart="228.24" from="1056276226#0" to="-97637311#0"/>
    <trip id="319" depart="229.68" from="744825961#0" to="-97637311#0"/>
    <trip id="320" depart="230.40" from="97637311#0" to="902979328#1"/>
    <trip id="321" depart="231.12" from="744825964#0" to="-744825964#0"/>
    <trip id="323" depart="232.56" from="97637311#0" to="902979328#1"/>
    <trip id="327" depart="235.44" from="744825964#0" to="744825973"/>
    <trip id="329" depart="236.88" from="-744825973" to="-744825964#0"/>
    <trip id="330" depart="237.60" from="744825961#0" to="-97637311#0"/>
    <trip id="335" depart="241.20" from="624410090" to="984589551#2"/>
    <trip id="336" depart="241.92" from="97637311#0" to="-97637311#0"/>
    <trip id="337" depart="242.64" from="744825961#0" to="902979328#1"/>
    <trip id="339" depart="244.08" from="1056276226#0" to="-97637311#0"/>
    <trip id="342" depart="246.24" from="-744825973" to="744825973"/>
    <trip id="343" depart="246.96" from="744825961#0" to="-97637311#0"/>
    <trip id="344" depart="247.68" from="1056276226#0" to="946621531"/>
    <trip id="345" depart="248.40" from="744825964#0" to="744825973"/>
    <trip id="348" depart="250.56" from="744825961#0" to="984589551#2"/>
    <trip id="349" depart="251.28" from="624410090" to="902979328#1"/>
    <trip id="350" depart="252.00" from="744825961#0" to="984589551#2"/>
    <trip id="351" depart="252.72" from="744825964#0" to="-744825964#0"/>
    <trip id="356" depart="256.32" from="97637311#0" to="902979328#1"/>
    <trip id="358" depart="257.76" from="-744825973" to="744825973"/>
    <trip id="359" depart="258.48" from="1056276226#0" to="-97637311#0"/>
    <trip id="361" depart="259.92" from="97637311#0" to="902979328#1"/>
    <trip id="362" depart="260.64" from="97637311#0" to="984589551#2"/>
    <trip id="365" depart="262.80" from="624410090" to="902979328#1"/>
    <trip id="366" depart="263.52" from="97637311#0" to="-97637311#0"/>
    <trip id="367" depart="264.24" from="744825961#0" to="902979328#1"/>
    <trip id="369" depart="265.68" from="624410090" to="-97637311#0"/>
    <trip id="371" depart="267.12" from="1056276226#0" to="946621531"/>
    <trip id="372" depart="267.84" from="1056276226#0" to="984589551#2"/>
    <trip id="374" depart="269.28" from="624410090" to="-97637311#0"/>
    <trip id="375" depart="270.00" from="1056276226#0" to="984589551#2"/>
    <trip id="376" depart="270.72" from="624410090" to="902979328#1"/>
    <trip id="377" depart="271.44" from="97637311#0" to="902979328#1"/>
    <trip id="382" depart="275.04" from="744825961#0" to="984589551#2"/>
    <trip id="383" depart="275.76" from="624410090" to="946621531"/>
    <trip id="385" depart="277.20" from="744825961#0" to="-97637311#0"/>
    <trip id="388" depart="279.36" from="97637311#0" to="984589551#2"/>
    <trip id="390" depart="280.80" from="744825964#0" to="744825973"/>
    <trip id="392" depart="282.24" from="1056276226#0" to="984589551#2"/>
    <trip id="393" depart="282.96" from="97637311#0" to="-97637311#0"/>
    <trip id="395" depart="284.40" from="97637311#0" to="902979328#1"/>
    <trip id="396" depart="285.12" from="97637311#0" to="984589551#2"/>
    <trip id="397" depart="285.84" from="1056276226#0" to="946621531"/>
    <trip id="398" depart="286.56" from="624410090" to="984589551#2"/>
    <trip id="399" depart="287.28" from="744825961#0" to="946621531"/>
    <trip id="400" depart="288.00" from="1056276226#0" to="-97637311#0"/>
    <trip id="401" depart="288.72" from="744825961#0" to="984589551#2"/>
    <trip id="404" depart="290.88" from="744825961#0" to="902979328#1"/>
    <trip id="405" depart="291.60" from="624410090" to="-97637311#0"/>
    <trip id="406" depart="292.32" from="1056276226#0" to="946621531"/>
    <trip id="407" depart="293.04" from="744825961#0" to="-97637311#0"/>
    <trip id="408" depart="293.76" from="744825964#0" to="-744825964#0"/>
    <trip id="410" depart="295.20" from="744825964#0" to="744825973"/>
    <trip id="411" depart="295.92" from="744825961#0" to="946621531"/>
    <trip id="414" depart="298.08" from="744825961#0" to="984589551#2"/>
    <trip id="417" depart="300.24" from="744825964#0" to="744825973"/>
    <trip id="419" depart="301.68" from="624410090" to="984589551#2"/>
    <trip id="420" depart="302.40" from="624410090" to="946621531"/>
    <trip id="421" depart="303.12" from="744825961#0" to="984589551#2"/>
    <trip id="422" depart="303.84" from="97637311#0" to="984589551#2"/>
    <trip id="423" depart="304.56" from="624410090" to="-97637311#0"/>
    <trip id="427" depart="307.44" from="97637311#0" to="984589551#2"/>
    <trip id="428" depart="308.16" from="744825964#0" to="744825973"/>
    <trip id="435" depart="313.20" from="744825961#0" to="946621531"/>
    <trip id="437" depart="314.64" from="97637311#0" to="902979328#1"/>
    <trip id="438" depart="315.36" from="1056276226#0" to="984589551#2"/>
    <trip id="439" depart="316.08" from="-744825973" to="744825973"/>
    <trip id="440" depart="316.80" from="1056276226#0" to="-97637311#0"/>
    <trip id="442" depart="318.24" from="97637311#0" to="946621531"/>
    <trip id="443" depart="318.96" from="-744825973" to="744825973"/>
    <trip id="444" depart="319.68" from="624410090" to="902979328#1"/>
    <trip id="446" depart="321.12" from="1056276226#0" to="984589551#2"/>
    <trip id="448" depart="322.56" from="624410090" to="-97637311#0"/>
    <trip id="449" depart="323.28" from="744825961#0" to="902979328#1"/>
    <trip id="450" depart="324.00" from="97637311#0" to="-97637311#0"/>
    <trip id="451" depart="324.72" from="97637311#0" to="902979328#1"/>
    <trip id="452" depart="325.44" from="1056276226#0" to="902979328#1"/>
    <trip id="455" depart="327.60" from="624410090" to="984589551#2"/>
    <trip id="456" depart="328.32" from="1056276226#0" to="946621531"/>
    <trip id="458" depart="329.76" from="744825961#0" to="902979328#1"/>
    <trip id="460" depart="331.20" from="744825961#0" to="984589551#2"/>
    <trip id="461" depart="331.92" from="744825961#0" to="984589551#2"/>
    <trip id="462" depart="332.64" from="744825961#0" to="-97637311#0"/>
    <trip id="463" depart="333.36" from="624410090" to="902979328#1"/>
    <trip id="464" depart="334.08" from="744825964#0" to="-744825964#0"/>
    <trip id="465" depart="334.80" from="1056276226#0" to="946621531"/>
    <trip id="467" depart="336.24" from="744825961#0" to="984589551#2"/>
    <trip id="468" depart="336.96" from="744825961#0" to="984589551#2"/>
    <trip id="470" depart="338.40" from="744825964#0" to="744825973"/>
    <trip id="474" depart="341.28" from="97637311#0" to="984589551#2"/>
    <trip id="476" depart="342.72" from="97637311#0" to="946621531"/>
    <trip id="477" depart="343.44" from="624410090" to="946621531"/>
    <trip id="479" depart="344.88" from="624410090" to="946621531"/>
    <trip id="484" depart="348.48" from="744825961#0" to="984589551#2"/>
    <trip id="491" depart="353.52" from="-744825973" to="744825973"/>
    <trip id="494" depart="355.68" from="744825964#0" to="-744825964#0"/>
    <trip id="499" depart="359.28" from="97637311#0" to="984589551#2"/>
    <trip id="501" depart="360.72" from="744825961#0" to="984589551#2"/>
    <trip id="505" depart="363.60" from="744825961#0" to="902979328#1"/>
    <trip id="510" depart="367.20" from="1056276226#0" to="-97637311#0"/>
    <trip id="511" depart="367.92" from="97637311#0" to="-97637311#0"/>
    <trip id="514" depart="370.08" from="-744825973" to="-744825964#0"/>
    <trip id="515" depart="370.80" from="1056276226#0" to="-97637311#0"/>
    <trip id="518" depart="372.96" from="1056276226#0" to="-97637311#0"/>
    <trip id="521" depart="375.12" from="744825964#0" to="744825973"/>
    <trip id="529" depart="380.88" from="744825964#0" to="744825973"/>
    <trip id="533" depart="383.76" from="744825961#0" to="902979328#1"/>
    <trip id="534" depart="384.48" from="1056276226#0" to="984589551#2"/>
    <trip id="538" depart="387.36" from="744825961#0" to="946621531"/>
    <trip id="540" depart="388.80" from="624410090" to="-97637311#0"/>
    <trip id="543" depart="390.96" from="624410090" to="902979328#1"/>
    <trip id="546" depart="393.12" from="744825964#0" to="-744825964#0"/>
    <trip id="549" depart="395.28" from="744825961#0" to="902979328#1"/>
    <trip id="551" depart="396.72" from="624410090" to="902979328#1"/>
    <trip id="555" depart="399.60" from="744825961#0" to="-97637311#0"/>
    <trip id="556" depart="400.32" from="744825961#0" to="-97637311#0"/>
    <trip id="558" depart="401.76" from="624410090" to="946621531"/>
    <trip id="559" depart="402.48" from="744825961#0" to="946621531"/>
    <trip id="560" depart="403.20" from="97637311#0" to="984589551#2"/>
    <trip id="563" depart="405.36" from="97637311#0" to="946621531"/>
    <trip id="564" depart="406.08" from="1056276226#0" to="-97637311#0"/>
    <trip id="567" depart="408.24" from="97637311#0" to="902979328#1"/>
    <trip id="572" depart="411.84" from="624410090" to="946621531"/>
    <trip id="574" depart="413.28" from="-744825973" to="-744825964#0"/>
    <trip id="578" depart="416.16" from="624410090" to="-97637311#0"/>
    <trip id="579" depart="416.88" from="744825964#0" to="-744825964#0"/>
    <trip id="580" depart="417.60" from="624410090" to="-97637311#0"/>
    <trip id="581" depart="418.32" from="744825964#0" to="744825973"/>
    <trip id="582" depart="419.04" from="744825964#0" to="-744825964#0"/>
    <trip id="583" depart="419.76" from="624410090" to="902979328#1"/>
    <trip id="586" depart="421.92" from="1056276226#0" to="-97637311#0"/>
    <trip id="590" depart="424.80" from="97637311#0" to="946621531"/>
    <trip id="592" depart="426.24" from="-744825973" to="-744825964#0"/>
    <trip id="593" depart="426.96" from="97637311#0" to="984589551#2"/>
    <trip id="594" depart="427.68" from="744825961#0" to="902979328#1"/>
    <trip id="595" depart="428.40" from="744825964#0" to="744825973"/>
    <trip id="596" depart="429.12" from="-744825973" to="-744825964#0"/>
    <trip id="597" depart="429.84" from="1056276226#0" to="946621531"/>
    <trip id="598" depart="430.56" from="744825961#0" to="946621531"/>
    <trip id="600" depart="432.00" from="97637311#0" to="-97637311#0"/>
    <trip id="601" depart="432.72" from="744825961#0" to="902979328#1"/>
    <trip id="602" depart="433.44" from="624410090" to="-97637311#0"/>
    <trip id="603" depart="434.16" from="624410090" to="-97637311#0"/>
    <trip id="604" depart="434.88" from="1056276226#0" to="902979328#1"/>
    <trip id="610" depart="439.20" from="744825961#0" to="946621531"/>
    <trip id="611" depart="439.92" from="744825961#0" to="-97637311#0"/>
    <trip id="612" depart="440.64" from="744825964#0" to="744825973"/>
    <trip id="614" depart="442.08" from="624410090" to="984589551#2"/>
    <trip id="615" depart="442.80" from="744825961#0" to="902979328#1"/>
    <trip id="616" depart="443.52" from="744825961#0" to="984589551#2"/>
    <trip id="618" depart="444.96" from="-744825973" to="744825973"/>
    <trip id="619" depart="445.68" from="1056276226#0" to="-97637311#0"/>
    <trip id="624" depart="449.28" from="97637311#0" to="902979328#1"/>
    <trip id="626" depart="450.72" from="744825961#0" to="946621531"/>
    <trip id="630" depart="453.60" from="-744825973" to="-744825964#0"/>
    <trip id="632" depart="455.04" from="624410090" to="946621531"/>
    <trip id="633" depart="455.76" from="744825961#0" to="-97637311#0"/>
    <trip id="635" depart="457.20" from="624410090" to="902979328#1"/>
    <trip id="636" depart="457.92" from="-744825973" to="744825973"/>
    <trip id="638" depart="459.36" from="624410090" to="902979328#1"/>
    <trip id="640" depart="460.80" from="-744825973" to="-744825964#0"/>
    <trip id="643" depart="462.96" from="97637311#0" to="984589551#2"/>
    <trip id="644" depart="463.68" from="624410090" to="902979328#1"/>
    <trip id="645" depart="464.40" from="-744825973" to="744825973"/>
    <trip id="646" depart="465.12" from="97637311#0" to="946621531"/>
    <trip id="647" depart="465.84" from="624410090" to="902979328#1"/>
    <trip id="648" depart="466.56" from="97637311#0" to="-97637311#0"/>
    <trip id="649" depart="467.28" from="624410090" to="946621531"/>
    <trip id="655" depart="471.60" from="1056276226#0" to="-97637311#0"/>
    <trip id="660" depart="475.20" from="97637311#0" to="984589551#2"/>
    <trip id="661" depart="475.92" from="-744825973" to="744825973"/>
    <trip id="662" depart="476.64" from="744825964#0" to="-744825964#0"/>
    <trip id="665" depart="478.80" from="744825964#0" to="-744825964#0"/>
    <trip id="668" depart="480.96" from="624410090" to="-97637311#0"/>
    <trip id="669" depart="481.68" from="744825964#0" to="744825973"/>
    <trip id="670" depart="482.40" from="744825961#0" to="-97637311#0"/>
    <trip id="671" depart="483.12" from="744825964#0" to="744825973"/>
    <trip id="673" depart="484.56" from="97637311#0" to="984589551#2"/>
    <trip id="674" depart="485.28" from="624410090" to="-97637311#0"/>
    <trip id="675" depart="486.00" from="624410090" to="902979328#1"/>
    <trip id="676" depart="486.72" from="97637311#0" to="946621531"/>
    <trip id="677" depart="487.44" from="744825964#0" to="-744825964#0"/>
    <trip id="678" depart="488.16" from="1056276226#0" to="902979328#1"/>
    <trip id="679" depart="488.88" from="97637311#0" to="902979328#1"/>
    <trip id="681" depart="490.32" from="97637311#0" to="-97637311#0"/>
    <trip id="684" depart="492.48" from="624410090" to="984589551#2"/>
    <trip id="688" depart="495.36" from="1056276226#0" to="984589551#2"/>
    <trip id="690" depart="496.80" from="97637311#0" to="984589551#2"/>
    <trip id="691" depart="497.52" from="744825961#0" to="946621531"/>
    <trip id="697" depart="501.84" from="97637311#0" to="902979328#1"/>
    <trip id="701" depart="504.72" from="624410090" to="946621531"/>
    <trip id="703" depart="506.16" from="97637311#0" to="902979328#1"/>
    <trip id="706" depart="508.32" from="624410090" to="902979328#1"/>
    <trip id="710" depart="511.20" from="744825961#0" to="902979328#1"/>
    <trip id="711" depart="511.92" from="97637311#0" to="902979328#1"/>
    <trip id="713" depart="513.36" from="744825961#0" to="984589551#2"/>
    <trip id="715" depart="514.80" from="744825964#0" to="744825973"/>
    <trip id="719" depart="517.68" from="744825961#0" to="946621531"/>
    <trip id="720" depart="518.40" from="1056276226#0" to="946621531"/>
    <trip id="721" depart="519.12" from="624410090" to="946621531"/>
    <trip id="722" depart="519.84" from="744825961#0" to="946621531"/>
    <trip id="724" depart="521.28" from="624410090" to="-97637311#0"/>
    <trip id="727" depart="523.44" from="744825961#0" to="984589551#2"/>
    <trip id="728" depart="524.16" from="744825961#0" to="-97637311#0"/>
    <trip id="730" depart="525.60" from="624410090" to="946621531"/>
    <trip id="731" depart="526.32" from="97637311#0" to="-97637311#0"/>
    <trip id="732" depart="527.04" from="-744825973" to="744825973"/>
    <trip id="733" depart="527.76" from="97637311#0" to="946621531"/>
    <trip id="736" depart="529.92" from="624410090" to="984589551#2"/>
    <trip id="737" depart="530.64" from="744825961#0" to="946621531"/>