<?xml version="1.0" encoding="UTF-8"?>

<!-- generated on 2024-09-03 01:38:21 by Eclipse SUMO netconvert Version 1.20.0
<configuration xmlns:xsi="http://www.w3.org/2001/XMLSchema-instance" xsi:noNamespaceSchemaLocation="http://sumo.dlr.de/xsd/netconvertConfiguration.xsd">

    <input>
        <osm-files value="train_files/roundabout/hard/osm_files/map(36).osm"/>
    </input>

    <output>
        <output-file value="train_files/roundabout/hard/outputs/map(36)_dict/map(36)/map(36).net.xml"/>
    </output>

    <projection>
        <proj.utm value="true"/>
    </projection>

    <building_defaults>
        <default.junctions.keep-clear value="false"/>
    </building_defaults>

</configuration>
-->

<net version="1.20" junctionCornerDetail="5" limitTurnSpeed="5.50" xmlns:xsi="http://www.w3.org/2001/XMLSchema-instance" xsi:noNamespaceSchemaLocation="http://sumo.dlr.de/xsd/net_file.xsd">

    <location netOffset="-473900.03,-5377810.51" convBoundary="0.00,0.00,1465.77,810.85" origBoundary="2.646268,48.552909,2.666180,48.560153" projParameter="+proj=utm +zone=31 +ellps=WGS84 +datum=WGS84 +units=m +no_defs"/>

    <type id="highway.path" priority="1" numLanes="1" speed="5.56" allow="pedestrian bicycle" oneway="0" width="2.00"/>
    <type id="highway.primary" priority="12" numLanes="2" speed="27.78" disallow="tram rail_urban rail rail_electric rail_fast ship container cable_car subway aircraft wheelchair scooter drone" oneway="0"/>
    <type id="highway.service" priority="1" numLanes="1" speed="5.56" allow="pedestrian delivery bicycle" oneway="0"/>
    <type id="highway.tertiary" priority="10" numLanes="1" speed="22.22" disallow="tram rail_urban rail rail_electric rail_fast ship container cable_car subway aircraft wheelchair scooter drone" oneway="0"/>

    <edge id=":11222642637_0" function="internal">
        <lane id=":11222642637_0_0" index="0" allow="pedestrian bicycle" speed="2.78" length="1.23" width="2.00" shape="1180.83,280.76 1180.47,280.58 1180.18,280.38 1179.95,280.31 1179.80,280.51"/>
    </edge>
    <edge id=":11222642637_1" function="internal">
        <lane id=":11222642637_1_0" index="0" allow="pedestrian bicycle" speed="4.47" length="4.27" width="2.00" shape="1177.87,280.01 1178.29,279.15 1179.02,278.67 1180.06,278.57 1181.42,278.85"/>
    </edge>
    <edge id=":11222642641_0" function="internal">
        <lane id=":11222642641_0_0" index="0" allow="pedestrian bicycle" speed="5.56" length="1.28" width="2.00" shape="1230.01,268.95 1229.92,269.32 1229.84,269.56 1229.70,269.79 1229.48,270.09"/>
    </edge>
    <edge id=":11222642641_1" function="internal">
        <lane id=":11222642641_1_0" index="0" allow="pedestrian bicycle" speed="5.56" length="0.43" width="2.00" shape="1227.89,268.88 1227.96,268.78 1228.01,268.70 1228.04,268.62 1228.07,268.50"/>
    </edge>
    <edge id=":11222642649_0" function="internal">
        <lane id=":11222642649_0_0" index="0" allow="pedestrian bicycle" speed="2.89" length="2.92" width="2.00" shape="1244.46,42.17 1245.00,41.45 1245.51,41.22 1245.99,41.49 1246.46,42.26"/>
    </edge>
    <edge id=":11410243620_0" function="internal">
        <lane id=":11410243620_0_0" index="0" allow="pedestrian bicycle" speed="5.56" length="0.81" width="2.00" shape="1177.63,288.34 1177.86,287.57"/>
    </edge>
    <edge id=":11410243620_1" function="internal">
        <lane id=":11410243620_1_0" index="0" allow="pedestrian bicycle" speed="5.56" length="0.81" width="2.00" shape="1175.95,286.99 1175.71,287.77"/>
    </edge>
    <edge id=":11410243621_0" function="internal">
        <lane id=":11410243621_0_0" index="0" allow="pedestrian bicycle" speed="5.56" length="0.53" width="2.00" shape="1167.33,321.84 1167.47,321.33"/>
    </edge>
    <edge id=":11410243621_1" function="internal">
        <lane id=":11410243621_1_0" index="0" allow="pedestrian bicycle" speed="5.56" length="0.56" width="2.00" shape="1165.54,320.79 1165.40,321.33"/>
    </edge>
    <edge id=":11410243622_0" function="internal">
        <lane id=":11410243622_0_0" index="0" allow="pedestrian bicycle" speed="5.56" length="0.10" width="2.00" shape="1171.32,309.25 1171.32,309.25"/>
    </edge>
    <edge id=":11410243622_1" function="internal">
        <lane id=":11410243622_1_0" index="0" allow="pedestrian bicycle" speed="5.56" length="0.10" width="2.00" shape="1169.41,308.67 1169.41,308.67"/>
    </edge>
    <edge id=":11410243651_0" function="internal">
        <lane id=":11410243651_0_0" index="0" allow="pedestrian bicycle" speed="5.56" length="0.43" width="2.00" shape="1224.91,377.65 1225.27,377.88"/>
    </edge>
    <edge id=":11410243651_1" function="internal">
        <lane id=":11410243651_1_0" index="0" allow="pedestrian bicycle" speed="5.56" length="0.13" width="2.00" shape="1226.35,376.19 1226.23,376.16"/>
    </edge>
    <edge id=":11410243656_0" function="internal">
        <lane id=":11410243656_0_0" index="0" allow="pedestrian bicycle" speed="5.56" length="0.10" width="2.00" shape="1204.41,368.44 1204.41,368.44"/>
    </edge>
    <edge id=":11410243656_1" function="internal">
        <lane id=":11410243656_1_0" index="0" allow="pedestrian bicycle" speed="5.56" length="0.10" width="2.00" shape="1204.97,366.52 1204.97,366.52"/>
    </edge>
    <edge id=":280981290_0" function="internal">
        <lane id=":280981290_0_0" index="0" disallow="tram rail_urban rail rail_electric rail_fast ship container cable_car subway aircraft wheelchair scooter drone" speed="3.65" length="4.67" shape="1247.47,42.10 1248.31,40.92 1249.12,40.55 1249.91,40.97 1250.67,42.20"/>
    </edge>
    <edge id=":316228689_0" function="internal">
        <lane id=":316228689_0_0" index="0" disallow="tram rail_urban rail rail_electric rail_fast ship container cable_car subway aircraft wheelchair scooter drone" speed="3.65" length="4.67" shape="1230.31,667.61 1229.89,668.99 1229.23,669.60 1228.35,669.45 1227.24,668.53"/>
    </edge>
    <edge id=":4525100774_0" function="internal">
        <lane id=":4525100774_0_0" index="0" allow="pedestrian bicycle" speed="2.89" length="2.92" width="2.00" shape="1148.06,413.65 1147.26,414.06 1146.70,414.04 1146.39,413.58 1146.32,412.68"/>
    </edge>
    <edge id=":4542540349_0" function="internal">
        <lane id=":4542540349_0_0" index="0" disallow="tram rail_urban rail rail_electric rail_fast ship container cable_car subway aircraft wheelchair scooter drone" speed="22.22" length="1.27" shape="1234.63,271.79 1234.46,272.13 1234.32,272.35 1234.17,272.55 1233.92,272.84"/>
    </edge>
    <edge id=":4542540349_1" function="internal">
        <lane id=":4542540349_1_0" index="0" disallow="tram rail_urban rail rail_electric rail_fast ship container cable_car subway aircraft wheelchair scooter drone" speed="22.22" length="0.42" shape="1231.53,270.72 1231.61,270.62 1231.66,270.55 1231.70,270.48 1231.76,270.37"/>
    </edge>
    <edge id=":4542541004_0" function="internal">
        <lane id=":4542541004_0_0" index="0" disallow="tram rail_urban rail rail_electric rail_fast ship container cable_car subway aircraft wheelchair scooter drone" speed="7.88" length="7.08" shape="1204.19,338.36 1203.80,336.62 1203.03,335.09 1201.90,333.79 1200.39,332.70"/>
    </edge>
    <edge id=":4542541004_1" function="internal">
        <lane id=":4542541004_1_0" index="0" disallow="tram rail_urban rail rail_electric rail_fast ship container cable_car subway aircraft wheelchair scooter drone" speed="26.56" length="7.25" shape="1204.19,338.36 1204.01,336.07 1204.09,334.50 1204.41,332.94 1204.93,330.69"/>
        <lane id=":4542541004_1_1" index="1" disallow="tram rail_urban rail rail_electric rail_fast ship container cable_car subway aircraft wheelchair scooter drone" speed="24.74" length="7.25" shape="1207.37,338.00 1207.22,336.02 1207.31,334.66 1207.60,333.31 1208.05,331.36"/>
    </edge>
    <edge id=":5896366511_0" function="internal">
        <lane id=":5896366511_0_0" index="0" disallow="tram rail_urban rail rail_electric rail_fast ship container cable_car subway aircraft wheelchair scooter drone" speed="8.98" length="8.08" shape="1258.66,310.20 1258.12,312.88 1257.94,315.09 1258.11,316.83 1258.65,318.10"/>
        <lane id=":5896366511_0_1" index="1" disallow="tram rail_urban rail rail_electric rail_fast ship container cable_car subway aircraft wheelchair scooter drone" speed="10.29" length="10.77" shape="1255.55,309.44 1254.91,312.80 1254.78,315.67 1255.14,318.04 1256.01,319.92"/>
    </edge>
    <edge id=":5896366511_2" function="internal">
        <lane id=":5896366511_2_0" index="0" disallow="tram rail_urban rail rail_electric rail_fast ship container cable_car subway aircraft wheelchair scooter drone" speed="27.78" length="9.93" shape="1251.17,310.96 1253.65,312.82 1255.34,314.12 1256.82,315.64 1258.65,318.10"/>
        <lane id=":5896366511_2_1" index="1" disallow="tram rail_urban rail rail_electric rail_fast ship container cable_car subway aircraft wheelchair scooter drone" speed="27.78" length="9.93" shape="1249.20,313.49 1251.46,315.16 1253.00,316.33 1254.35,317.69 1256.01,319.92"/>
    </edge>
    <edge id=":6970877825_0" function="internal">
        <lane id=":6970877825_0_0" index="0" disallow="tram rail_urban rail rail_electric rail_fast ship container cable_car subway aircraft wheelchair scooter drone" speed="6.81" length="8.48" shape="1264.40,355.60 1262.23,354.78 1260.24,354.74 1258.43,355.47 1256.80,356.97"/>
    </edge>
    <edge id=":6970877825_1" function="internal">
        <lane id=":6970877825_1_0" index="0" disallow="tram rail_urban rail rail_electric rail_fast ship container cable_car subway aircraft wheelchair scooter drone" speed="6.53" length="8.30" shape="1263.33,345.78 1262.80,347.96 1263.06,349.85 1264.09,351.46 1265.90,352.77"/>
    </edge>
    <edge id=":6970877825_2" function="internal">
        <lane id=":6970877825_2_0" index="0" disallow="tram rail_urban rail rail_electric rail_fast ship container cable_car subway aircraft wheelchair scooter drone" speed="27.78" length="12.55" shape="1263.33,345.78 1261.88,349.36 1260.71,351.75 1259.22,353.95 1256.80,356.97"/>
        <lane id=":6970877825_2_1" index="1" disallow="tram rail_urban rail rail_electric rail_fast ship container cable_car subway aircraft wheelchair scooter drone" speed="27.78" length="12.55" shape="1260.35,344.61 1259.02,347.92 1257.94,350.12 1256.56,352.15 1254.32,354.94"/>
    </edge>
    <edge id=":6970877827_0" function="internal">
        <lane id=":6970877827_0_0" index="0" disallow="tram rail_urban rail rail_electric rail_fast ship container cable_car subway aircraft wheelchair scooter drone" speed="27.78" length="10.92" shape="1216.96,360.96 1214.28,359.00 1212.54,357.52 1211.03,355.80 1209.06,353.13"/>
        <lane id=":6970877827_0_1" index="1" disallow="tram rail_urban rail rail_electric rail_fast ship container cable_car subway aircraft wheelchair scooter drone" speed="27.78" length="10.92" shape="1219.20,358.64 1216.65,356.78 1214.98,355.40 1213.54,353.79 1211.66,351.27"/>
    </edge>
    <edge id=":6970877827_2" function="internal">
        <lane id=":6970877827_2_0" index="0" disallow="tram rail_urban rail rail_electric rail_fast ship container cable_car subway aircraft wheelchair scooter drone" speed="9.57" length="10.76" shape="1209.31,362.61 1209.95,359.50 1210.12,356.89 1209.83,354.77 1209.06,353.13"/>
        <lane id=":6970877827_2_1" index="1" disallow="tram rail_urban rail rail_electric rail_fast ship container cable_car subway aircraft wheelchair scooter drone" speed="10.48" length="10.76" shape="1212.60,362.67 1213.26,359.18 1213.33,356.12 1212.80,353.48 1211.66,351.27"/>
    </edge>
    <edge id=":6970877831_0" function="internal">
        <lane id=":6970877831_0_0" index="0" disallow="tram rail_urban rail rail_electric rail_fast ship container cable_car subway aircraft wheelchair scooter drone" speed="19.29" length="10.42" shape="1203.69,318.34 1206.66,317.75 1208.74,317.20 1210.69,316.29 1213.26,314.59"/>
    </edge>
    <edge id=":6970877831_1" function="internal">
        <lane id=":6970877831_1_0" index="0" disallow="tram rail_urban rail rail_electric rail_fast ship container cable_car subway aircraft wheelchair scooter drone" speed="23.59" length="10.28" shape="1207.07,323.32 1208.66,320.51 1209.63,318.44 1210.87,316.63 1213.26,314.59"/>
        <lane id=":6970877831_1_1" index="1" disallow="tram rail_urban rail rail_electric rail_fast ship container cable_car subway aircraft wheelchair scooter drone" speed="22.30" length="10.28" shape="1209.74,325.08 1211.14,322.56 1211.96,320.68 1213.01,319.03 1215.12,317.19"/>
    </edge>
    <edge id=":6970877833_0" function="internal">
        <lane id=":6970877833_0_0" index="0" disallow="tram rail_urban rail rail_electric rail_fast ship container cable_car subway aircraft wheelchair scooter drone" speed="14.65" length="14.06" shape="1230.28,306.44 1234.31,305.42 1237.07,304.44 1239.41,302.78 1242.18,299.76"/>
        <lane id=":6970877833_0_1" index="1" disallow="tram rail_urban rail rail_electric rail_fast ship container cable_car subway aircraft wheelchair scooter drone" speed="14.85" length="14.45" shape="1230.28,306.44 1234.59,305.92 1237.85,306.05 1240.68,305.50 1243.70,302.94"/>
    </edge>
    <edge id=":6970877833_2" function="internal">
        <lane id=":6970877833_2_0" index="0" disallow="tram rail_urban rail rail_electric rail_fast ship container cable_car subway aircraft wheelchair scooter drone" speed="15.34" length="14.44" shape="1230.28,306.44 1234.56,305.54 1237.62,305.51 1240.62,306.30 1244.75,307.89"/>
        <lane id=":6970877833_2_1" index="1" disallow="tram rail_urban rail rail_electric rail_fast ship container cable_car subway aircraft wheelchair scooter drone" speed="14.79" length="14.44" shape="1231.06,309.54 1235.03,308.75 1237.86,308.84 1240.64,309.69 1244.47,311.21"/>
    </edge>
    <edge id=":6970877838_0" function="internal">
        <lane id=":6970877838_0_0" index="0" disallow="tram rail_urban rail rail_electric rail_fast ship container cable_car subway aircraft wheelchair scooter drone" speed="14.67" length="0.96" shape="1255.55,358.49 1255.27,358.82 1255.07,359.03 1254.84,359.21 1254.48,359.45"/>
        <lane id=":6970877838_0_1" index="1" disallow="tram rail_urban rail rail_electric rail_fast ship container cable_car subway aircraft wheelchair scooter drone" speed="27.78" length="0.96" shape="1253.07,356.46 1252.98,356.57 1252.91,356.64 1252.84,356.70 1252.72,356.78"/>
    </edge>
    <edge id=":6970877841_0" function="internal">
        <lane id=":6970877841_0_0" index="0" disallow="tram rail_urban rail rail_electric rail_fast ship container cable_car subway aircraft wheelchair scooter drone" speed="8.80" length="9.23" shape="1233.85,366.49 1232.07,366.75 1230.24,367.67 1228.36,369.24 1226.44,371.46"/>
        <lane id=":6970877841_0_1" index="1" disallow="tram rail_urban rail rail_electric rail_fast ship container cable_car subway aircraft wheelchair scooter drone" speed="9.13" length="9.98" shape="1233.85,366.49 1230.48,366.53 1227.78,366.93 1225.77,367.69 1224.45,368.80"/>
    </edge>
    <edge id=":6970877841_2" function="internal">
        <lane id=":6970877841_2_0" index="0" disallow="tram rail_urban rail rail_electric rail_fast ship container cable_car subway aircraft wheelchair scooter drone" speed="27.78" length="10.44" shape="1233.85,366.49 1230.67,366.26 1228.52,365.86 1226.40,365.23 1223.32,364.35"/>
        <lane id=":6970877841_2_1" index="1" disallow="tram rail_urban rail rail_electric rail_fast ship container cable_car subway aircraft wheelchair scooter drone" speed="27.78" length="10.44" shape="1233.97,363.29 1231.00,363.08 1228.99,362.68 1227.01,362.09 1224.13,361.25"/>
    </edge>
    <edge id=":7831784985_0" function="internal">
        <lane id=":7831784985_0_0" index="0" allow="pedestrian bicycle" speed="4.56" length="3.85" width="2.00" shape="1180.72,286.65 1179.64,286.49 1178.77,286.69 1178.12,287.24 1177.68,288.15"/>
    </edge>
    <edge id=":7831784985_1" function="internal">
        <lane id=":7831784985_1_0" index="0" disallow="tram rail_urban rail rail_electric rail_fast ship container cable_car subway aircraft wheelchair scooter drone" speed="22.22" length="7.17" shape="1180.72,286.65 1173.85,284.59"/>
    </edge>
    <edge id=":7831784985_2" function="internal">
        <lane id=":7831784985_2_0" index="0" allow="pedestrian bicycle" speed="6.22" length="1.55" width="2.00" shape="1180.72,286.65 1179.33,285.98"/>
    </edge>
    <edge id=":7831784985_14" function="internal">
        <lane id=":7831784985_14_0" index="0" allow="pedestrian bicycle" speed="6.22" length="6.44" width="2.00" shape="1179.33,285.98 1178.95,285.79 1177.88,284.43 1177.50,282.57 1177.82,280.21"/>
    </edge>
    <edge id=":7831784985_3" function="internal">
        <lane id=":7831784985_3_0" index="0" allow="pedestrian bicycle" speed="4.40" length="3.87" width="2.00" shape="1179.75,280.70 1179.66,281.70 1179.94,282.51 1180.59,283.14 1181.60,283.57"/>
    </edge>
    <edge id=":7831784985_4" function="internal">
        <lane id=":7831784985_4_0" index="0" allow="pedestrian bicycle" speed="5.56" length="7.73" width="2.00" shape="1179.75,280.70 1177.68,288.15"/>
    </edge>
    <edge id=":7831784985_5" function="internal">
        <lane id=":7831784985_5_0" index="0" allow="pedestrian bicycle" speed="5.97" length="8.15" width="2.00" shape="1179.75,280.70 1178.88,282.94 1177.60,284.33 1175.93,284.88 1173.85,284.59"/>
    </edge>
    <edge id=":7831784985_6" function="internal">
        <lane id=":7831784985_6_0" index="0" allow="pedestrian bicycle" speed="2.89" length="2.92" width="2.00" shape="1179.75,280.70 1179.09,281.31 1178.54,281.42 1178.12,281.06 1177.82,280.21"/>
    </edge>
    <edge id=":7831784985_7" function="internal">
        <lane id=":7831784985_7_0" index="0" allow="pedestrian bicycle" speed="4.43" length="3.79" width="2.00" shape="1174.81,281.54 1175.93,281.74 1176.80,281.59 1177.43,281.08 1177.82,280.21"/>
    </edge>
    <edge id=":7831784985_8" function="internal">
        <lane id=":7831784985_8_0" index="0" disallow="tram rail_urban rail rail_electric rail_fast ship container cable_car subway aircraft wheelchair scooter drone" speed="22.22" length="7.09" shape="1174.81,281.54 1181.60,283.57"/>
    </edge>
    <edge id=":7831784985_9" function="internal">
        <lane id=":7831784985_9_0" index="0" allow="pedestrian bicycle" speed="6.25" length="1.59" width="2.00" shape="1174.81,281.54 1176.23,282.26"/>
    </edge>
    <edge id=":7831784985_15" function="internal">
        <lane id=":7831784985_15_0" index="0" allow="pedestrian bicycle" speed="6.25" length="6.60" width="2.00" shape="1176.23,282.26 1176.66,282.47 1177.75,283.89 1178.09,285.78 1177.68,288.15"/>
    </edge>
    <edge id=":7831784985_10" function="internal">
        <lane id=":7831784985_10_0" index="0" allow="pedestrian bicycle" speed="4.45" length="4.03" width="2.00" shape="1175.77,287.58 1175.90,286.57 1175.62,285.74 1174.94,285.08 1173.85,284.59"/>
    </edge>
    <edge id=":7831784985_11" function="internal">
        <lane id=":7831784985_11_0" index="0" allow="pedestrian bicycle" speed="5.56" length="7.65" width="2.00" shape="1175.77,287.58 1177.82,280.21"/>
    </edge>
    <edge id=":7831784985_12" function="internal">
        <lane id=":7831784985_12_0" index="0" allow="pedestrian bicycle" speed="6.07" length="8.02" width="2.00" shape="1175.77,287.58 1176.72,285.37 1178.01,283.97 1179.64,283.37 1181.60,283.57"/>
    </edge>
    <edge id=":7831784985_13" function="internal">
        <lane id=":7831784985_13_0" index="0" allow="pedestrian bicycle" speed="2.89" length="2.92" width="2.00" shape="1175.77,287.58 1176.46,287.00 1177.02,286.91 1177.42,287.29 1177.68,288.15"/>
    </edge>
    <edge id=":8655508527_0" function="internal">
        <lane id=":8655508527_0_0" index="0" allow="pedestrian bicycle" speed="4.51" length="3.89" width="2.00" shape="1170.43,320.17 1169.32,319.99 1168.44,320.17 1167.80,320.73 1167.38,321.65"/>
    </edge>
    <edge id=":8655508527_1" function="internal">
        <lane id=":8655508527_1_0" index="0" disallow="tram rail_urban rail rail_electric rail_fast ship container cable_car subway aircraft wheelchair scooter drone" speed="22.22" length="7.01" shape="1170.43,320.17 1163.72,318.14"/>
    </edge>
    <edge id=":8655508527_2" function="internal">
        <lane id=":8655508527_2_0" index="0" allow="pedestrian bicycle" speed="5.47" length="6.25" width="2.00" shape="1170.43,320.17 1168.58,319.41 1167.41,318.43 1166.92,317.23 1167.10,315.82"/>
    </edge>
    <edge id=":8655508527_3" function="internal">
        <lane id=":8655508527_3_0" index="0" allow="pedestrian bicycle" speed="5.56" length="5.43" width="2.00" shape="1169.00,316.47 1167.38,321.65"/>
    </edge>
    <edge id=":8655508527_4" function="internal">
        <lane id=":8655508527_4_0" index="0" allow="pedestrian bicycle" speed="5.44" length="6.21" width="2.00" shape="1169.00,316.47 1168.28,317.69 1167.17,318.37 1165.64,318.52 1163.72,318.14"/>
    </edge>
    <edge id=":8655508527_5" function="internal">
        <lane id=":8655508527_5_0" index="0" allow="pedestrian bicycle" speed="2.89" length="2.92" width="2.00" shape="1169.00,316.47 1168.28,317.01 1167.73,317.09 1167.33,316.69 1167.10,315.82"/>
    </edge>
    <edge id=":8655508527_6" function="internal">
        <lane id=":8655508527_6_0" index="0" allow="pedestrian bicycle" speed="4.43" length="3.91" width="2.00" shape="1165.45,321.14 1165.57,320.09 1165.32,319.25 1164.71,318.60 1163.72,318.14"/>
    </edge>
    <edge id=":8655508527_7" function="internal">
        <lane id=":8655508527_7_0" index="0" allow="pedestrian bicycle" speed="5.56" length="5.57" width="2.00" shape="1165.45,321.14 1167.10,315.82"/>
    </edge>
    <edge id=":8655508527_8" function="internal">
        <lane id=":8655508527_8_0" index="0" allow="pedestrian bicycle" speed="2.89" length="2.92" width="2.00" shape="1165.45,321.14 1166.13,320.54 1166.67,320.43 1167.09,320.80 1167.38,321.65"/>
    </edge>
    <edge id=":8655508530_0" function="internal">
        <lane id=":8655508530_0_0" index="0" allow="pedestrian bicycle" speed="5.56" length="9.44" width="2.00" shape="1213.53,371.15 1210.96,370.07 1209.11,369.55 1207.22,369.16 1204.50,368.47"/>
    </edge>
    <edge id=":8655508530_1" function="internal">
        <lane id=":8655508530_1_0" index="0" allow="pedestrian bicycle" speed="5.75" length="6.20" width="2.00" shape="1213.53,371.15 1212.37,370.32 1211.70,369.15 1211.51,367.63 1211.79,365.76"/>
    </edge>
    <edge id=":8655508530_2" function="internal">
        <lane id=":8655508530_2_0" index="0" allow="pedestrian bicycle" speed="2.90" length="2.95" width="2.00" shape="1213.53,371.15 1212.95,370.45 1212.85,369.89 1213.24,369.48 1214.11,369.22"/>
    </edge>
    <edge id=":8655508530_3" function="internal">
        <lane id=":8655508530_3_0" index="0" allow="pedestrian bicycle" speed="4.63" length="4.54" width="2.00" shape="1205.06,366.55 1206.41,366.78 1207.47,366.59 1208.23,365.98 1208.70,364.96"/>
    </edge>
    <edge id=":8655508530_4" function="internal">
        <lane id=":8655508530_4_0" index="0" allow="pedestrian bicycle" speed="5.56" length="9.46" width="2.00" shape="1205.06,366.55 1207.79,367.24 1209.68,367.62 1211.53,368.14 1214.11,369.22"/>
    </edge>
    <edge id=":8655508530_5" function="internal">
        <lane id=":8655508530_5_0" index="0" allow="pedestrian bicycle" speed="2.89" length="2.92" width="2.00" shape="1205.06,366.55 1205.64,367.24 1205.74,367.79 1205.36,368.20 1204.50,368.47"/>
    </edge>
    <edge id=":8655508530_6" function="internal">
        <lane id=":8655508530_6_0" index="0" allow="pedestrian bicycle" speed="4.82" length="4.55" width="2.00" shape="1206.76,371.76 1206.90,370.65 1206.57,369.73 1205.77,369.00 1204.50,368.47"/>
    </edge>
    <edge id=":8655508530_7" function="internal">
        <lane id=":8655508530_7_0" index="0" disallow="tram rail_urban rail rail_electric rail_fast ship container cable_car subway aircraft wheelchair scooter drone" speed="19.44" length="7.15" shape="1206.76,371.76 1208.70,364.96"/>
        <lane id=":8655508530_7_1" index="1" disallow="tram rail_urban rail rail_electric rail_fast ship container cable_car subway aircraft wheelchair scooter drone" speed="19.44" length="7.15" shape="1209.81,372.71 1211.79,365.76"/>
    </edge>
    <edge id=":8655508530_9" function="internal">
        <lane id=":8655508530_9_0" index="0" allow="pedestrian bicycle" speed="5.35" length="6.39" width="2.00" shape="1209.81,372.71 1210.64,370.69 1211.64,369.43 1212.79,368.94 1214.11,369.22"/>
    </edge>
    <edge id=":8655508531_0" function="internal">
        <lane id=":8655508531_0_0" index="0" allow="pedestrian bicycle" speed="4.72" length="4.50" width="2.00" shape="1225.10,377.77 1224.00,377.27 1222.98,377.23 1222.05,377.67 1221.21,378.59"/>
    </edge>
    <edge id=":8655508531_1" function="internal">
        <lane id=":8655508531_1_0" index="0" allow="pedestrian bicycle" speed="5.56" length="9.11" width="2.00" shape="1225.10,377.77 1217.36,372.98"/>
    </edge>
    <edge id=":8655508531_2" function="internal">
        <lane id=":8655508531_2_0" index="0" allow="pedestrian bicycle" speed="2.89" length="2.92" width="2.00" shape="1225.10,377.77 1224.74,376.94 1224.80,376.39 1225.28,376.10 1226.19,376.08"/>
    </edge>
    <edge id=":8655508531_3" function="internal">
        <lane id=":8655508531_3_0" index="0" allow="pedestrian bicycle" speed="4.56" length="4.13" width="2.00" shape="1225.59,372.58 1225.03,373.59 1224.94,374.51 1225.33,375.34 1226.19,376.08"/>
    </edge>
    <edge id=":8655508531_4" function="internal">
        <lane id=":8655508531_4_0" index="0" disallow="tram rail_urban rail rail_electric rail_fast ship container cable_car subway aircraft wheelchair scooter drone" speed="19.44" length="7.50" shape="1225.59,372.58 1221.21,378.59"/>
        <lane id=":8655508531_4_1" index="1" disallow="tram rail_urban rail rail_electric rail_fast ship container cable_car subway aircraft wheelchair scooter drone" speed="19.44" length="7.50" shape="1223.04,370.64 1218.59,376.75"/>
    </edge>
    <edge id=":8655508531_6" function="internal">
        <lane id=":8655508531_6_0" index="0" allow="pedestrian bicycle" speed="5.96" length="6.77" width="2.00" shape="1223.04,370.64 1221.56,372.27 1220.12,373.20 1218.72,373.43 1217.36,372.98"/>
    </edge>
    <edge id=":8655508531_7" function="internal">
        <lane id=":8655508531_7_0" index="0" allow="pedestrian bicycle" speed="5.56" length="9.17" width="2.00" shape="1218.38,371.26 1226.19,376.08"/>
    </edge>
    <edge id=":8655508531_8" function="internal">
        <lane id=":8655508531_8_0" index="0" allow="pedestrian bicycle" speed="5.28" length="6.31" width="2.00" shape="1218.38,371.26 1219.46,372.24 1219.86,373.49 1219.57,374.99 1218.59,376.75"/>
    </edge>
    <edge id=":8655508531_9" function="internal">
        <lane id=":8655508531_9_0" index="0" allow="pedestrian bicycle" speed="2.89" length="2.92" width="2.00" shape="1218.38,371.26 1218.77,372.08 1218.73,372.63 1218.26,372.93 1217.36,372.98"/>
    </edge>
    <edge id=":9102760741_0" function="internal">
        <lane id=":9102760741_0_0" index="0" disallow="tram rail_urban rail rail_electric rail_fast ship container cable_car subway aircraft wheelchair scooter drone" speed="3.65" length="4.67" shape="1109.12,288.69 1108.10,289.71 1107.23,289.94 1106.53,289.39 1105.98,288.06"/>
    </edge>
    <edge id=":9705693831_0" function="internal">
        <lane id=":9705693831_0_0" index="0" allow="pedestrian bicycle" speed="2.89" length="2.92" width="2.00" shape="1116.36,494.79 1115.52,495.12 1114.96,495.04 1114.70,494.54 1114.72,493.64"/>
    </edge>
    <edge id=":9705693835_0" function="internal">
        <lane id=":9705693835_0_0" index="0" allow="pedestrian bicycle" speed="5.56" length="22.69" width="2.00" shape="1180.76,352.15 1179.10,356.81 1177.25,362.93 1175.50,369.08 1174.14,373.84"/>
    </edge>
    <edge id=":9705693835_1" function="internal">
        <lane id=":9705693835_1_0" index="0" allow="pedestrian bicycle" speed="5.56" length="22.79" width="2.00" shape="1180.76,352.15 1170.21,372.35"/>
    </edge>
    <edge id=":9705693835_2" function="internal">
        <lane id=":9705693835_2_0" index="0" allow="pedestrian bicycle" speed="2.89" length="2.92" width="2.00" shape="1180.76,352.15 1180.00,352.65 1179.45,352.69 1179.08,352.26 1178.91,351.38"/>
    </edge>
    <edge id=":9705693835_3" function="internal">
        <lane id=":9705693835_3_0" index="0" allow="pedestrian bicycle" speed="5.56" length="22.41" width="2.00" shape="1168.53,371.24 1178.91,351.38"/>
    </edge>
    <edge id=":9705693835_4" function="internal">
        <lane id=":9705693835_4_0" index="0" allow="pedestrian bicycle" speed="4.49" length="8.68" width="2.00" shape="1168.53,371.24 1170.15,369.87 1172.24,370.14 1173.87,371.61 1174.14,373.84"/>
    </edge>
    <edge id=":9705693835_5" function="internal">
        <lane id=":9705693835_5_0" index="0" allow="pedestrian bicycle" speed="2.90" length="2.95" width="2.00" shape="1168.53,371.24 1169.37,370.89 1169.93,370.95 1170.21,371.44 1170.21,372.35"/>
    </edge>
    <edge id=":9705693835_6" function="internal">
        <lane id=":9705693835_6_0" index="0" allow="pedestrian bicycle" speed="5.56" length="15.52" width="2.00" shape="1172.22,373.27 1173.74,367.67 1173.91,365.65 1172.74,367.21 1170.21,372.35"/>
    </edge>
    <edge id=":9705693835_7" function="internal">
        <lane id=":9705693835_7_0" index="0" allow="pedestrian bicycle" speed="5.56" length="22.90" width="2.00" shape="1172.22,373.27 1173.59,368.48 1175.37,362.26 1177.25,356.07 1178.91,351.38"/>
    </edge>
    <edge id=":9705693835_8" function="internal">
        <lane id=":9705693835_8_0" index="0" allow="pedestrian bicycle" speed="2.89" length="2.92" width="2.00" shape="1172.22,373.27 1172.91,372.70 1173.46,372.60 1173.87,372.98 1174.14,373.84"/>
    </edge>