<?xml version="1.0" encoding="UTF-8"?>

<!-- generated on 2024-09-03 01:38:21 by Eclipse SUMO duarouter Version 1.20.0
<configuration xmlns:xsi="http://www.w3.org/2001/XMLSchema-instance" xsi:noNamespaceSchemaLocation="http://sumo.dlr.de/xsd/duarouterConfiguration.xsd">

    <input>
        <net-file value="train_files/roundabout/hard/outputs/map(36)_dict/map(36)/map(36).net.xml"/>
        <route-files value="train_files/roundabout/hard/outputs/map(36)_dict/map(36)/map(36).trips.xml"/>
    </input>

    <output>
        <output-file value="train_files/roundabout/hard/outputs/map(36)_dict/map(36)/map(36).rou.xml"/>
    </output>

    <report>
        <ignore-errors value="true"/>
    </report>

</configuration>
-->

<routes xmlns:xsi="http://www.w3.org/2001/XMLSchema-instance" xsi:noNamespaceSchemaLocation="http://sumo.dlr.de/xsd/routes_file.xsd">
    <vehicle id="1" depart="0.72">
        <route edges="1056276226#0 1056276226#1 744825974#4 744825974#5 744825974#6 -97637311#1 -97637311#0"/>
    </vehicle>
    <vehicle id="5" depart="3.60">
        <route edges="1056276226#0 1056276226#1 744825974#4 744825974#5 744825974#6 744825974#7 744825974#0 902979328#0 902979328#1"/>
    </vehicle>
    <vehicle id="7" depart="5.04">
        <route edges="744825961#0 744825961#1 744825974#2 744825974#3 744825974#4 744825974#5 744825974#6 744825974#7 744825974#0 902979328#0 902979328#1"/>
    </vehicle>
    <vehicle id="8" depart="5.76">
        <route edges="1056276226#0 1056276226#1 744825974#4 744825974#5 744825974#6 744825974#7 744825974#0 902979328#0 902979328#1"/>
    </vehicle>
    <vehicle id="9" depart="6.48">
        <route edges="744825964#0 744825964#1 744825973 -744825973 -744825964#1 -744825964#0"/>
    </vehicle>
    <vehicle id="13" depart="9.36">
        <route edges="-744825973 -744825964#1 -744825964#0"/>
    </vehicle>
    <vehicle id="14" depart="10.08">
        <route edges="97637311#0 97637311#1 744825974#7 744825974#0 902979328#0 902979328#1"/>
    </vehicle>
    <vehicle id="16" depart="11.52">
        <route edges="744825961#0 744825961#1 744825974#2 984589551#0 984589551#1 984589551#2"/>
    </vehicle>
    <vehicle id="17" depart="12.24">
        <route edges="624410090 744825974#6 744825974#7 744825974#0 902979328#0 902979328#1"/>
    </vehicle>
    <vehicle id="19" depart="13.68">
        <route edges="97637311#0 97637311#1 744825974#7 744825974#0 902979328#0 902979328#1"/>
    </vehicle>
    <vehicle id="20" depart="14.40">
        <route edges="744825964#0 744825964#1 744825973 -744825973 -744825964#1 -744825964#0"/>
    </vehicle>
    <vehicle id="21" depart="15.12">
        <route edges="1056276226#0 1056276226#1 744825974#4 744825974#5 744825974#6 -97637311#1 -97637311#0"/>
    </vehicle>
    <vehicle id="25" depart="18.00">
        <route edges="624410090 744825974#6 -97637311#1 -97637311#0"/>
    </vehicle>
    <vehicle id="26" depart="18.72">
        <route edges="1056276226#0 1056276226#1 744825974#4 744825974#5 744825974#6 744825974#7 744825974#0 744825974#1 744825974#2 984589551#0 984589551#1 984589551#2"/>
    </vehicle>
    <vehicle id="27" depart="19.44">
        <route edges="744825961#0 744825961#1 744825974#2 744825974#3 744825974#4 744825974#5 744825974#6 744825974#7 744825974#0 902979328#0 902979328#1"/>
    </vehicle>
    <vehicle id="28" depart="20.16">
        <route edges="1056276226#0 1056276226#1 744825974#4 946621531"/>
    </vehicle>
    <vehicle id="29" depart="20.88">
        <route edges="-744825973 -744825964#1 -744825964#0 744825964#0 744825964#1 744825973"/>
    </vehicle>
    <vehicle id="30" depart="21.60">
        <route edges="97637311#0 97637311#1 744825974#7 744825974#0 902979328#0 902979328#1"/>
    </vehicle>
    <vehicle id="31" depart="22.32">
        <route edges="744825961#0 744825961#1 744825974#2 744825974#3 744825974#4 946621531"/>
    </vehicle>
    <vehicle id="32" depart="23.04">
        <route edges="97637311#0 97637311#1 744825974#7 744825974#0 744825974#1 744825974#2 744825974#3 744825974#4 946621531"/>
    </vehicle>
    <vehicle id="34" depart="24.48">
        <route edges="1056276226#0 1056276226#1 744825974#4 744825974#5 744825974#6 -97637311#1 -97637311#0"/>
    </vehicle>
    <vehicle id="35" depart="25.20">
        <route edges="1056276226#0 1056276226#1 744825974#4 744825974#5 744825974#6 744825974#7 744825974#0 744825974#1 744825974#2 984589551#0 984589551#1 984589551#2"/>
    </vehicle>
    <vehicle id="36" depart="25.92">
        <route edges="97637311#0 97637311#1 744825974#7 744825974#0 744825974#1 744825974#2 744825974#3 744825974#4 744825974#5 744825974#6 -97637311#1 -97637311#0"/>
    </vehicle>
    <vehicle id="39" depart="28.08">
        <route edges="1056276226#0 1056276226#1 744825974#4 744825974#5 744825974#6 -97637311#1 -97637311#0"/>
    </vehicle>
    <vehicle id="40" depart="28.80">
        <route edges="744825961#0 744825961#1 744825974#2 744825974#3 744825974#4 744825974#5 744825974#6 -97637311#1 -97637311#0"/>
    </vehicle>
    <vehicle id="41" depart="29.52">
        <route edges="744825961#0 744825961#1 744825974#2 984589551#0 984589551#1 984589551#2"/>
    </vehicle>
    <vehicle id="42" depart="30.24">
        <route edges="624410090 744825974#6 -97637311#1 -97637311#0"/>
    </vehicle>
    <vehicle id="43" depart="30.96">
        <route edges="97637311#0 97637311#1 744825974#7 744825974#0 902979328#0 902979328#1"/>
    </vehicle>
    <vehicle id="44" depart="31.68">
        <route edges="-744825973 -744825964#1 -744825964#0"/>
    </vehicle>
    <vehicle id="46" depart="33.12">
        <route edges="744825964#0 744825964#1 744825973"/>
    </vehicle>
    <vehicle id="47" depart="33.84">
        <route edges="-744825973 -744825964#1 -744825964#0 744825964#0 744825964#1 744825973"/>
    </vehicle>
    <vehicle id="48" depart="34.56">
        <route edges="97637311#0 97637311#1 744825974#7 744825974#0 902979328#0 902979328#1"/>
    </vehicle>
    <vehicle id="49" depart="35.28">
        <route edges="97637311#0 97637311#1 744825974#7 744825974#0 744825974#1 744825974#2 984589551#0 984589551#1 984589551#2"/>
    </vehicle>
    <vehicle id="52" depart="37.44">
        <route edges="1056276226#0 1056276226#1 744825974#4 744825974#5 744825974#6 744825974#7 744825974#0 902979328#0 902979328#1"/>
    </vehicle>
    <vehicle id="53" depart="38.16">
        <route edges="-744825973 -744825964#1 -744825964#0 744825964#0 744825964#1 744825973"/>
    </vehicle>
    <vehicle id="54" depart="38.88">
        <route edges="624410090 744825974#6 744825974#7 744825974#0 744825974#1 744825974#2 984589551#0 984589551#1 984589551#2"/>
    </vehicle>
    <vehicle id="55" depart="39.60">
        <route edges="97637311#0 97637311#1 744825974#7 744825974#0 744825974#1 744825974#2 744825974#3 744825974#4 744825974#5 744825974#6 -97637311#1 -97637311#0"/>
    </vehicle>
    <vehicle id="56" depart="40.32">
        <route edges="744825961#0 744825961#1 744825974#2 744825974#3 744825974#4 744825974#5 744825974#6 -97637311#1 -97637311#0"/>
    </vehicle>
    <vehicle id="57" depart="41.04">
        <route edges="97637311#0 97637311#1 744825974#7 744825974#0 744825974#1 744825974#2 984589551#0 984589551#1 984589551#2"/>
    </vehicle>
    <vehicle id="58" depart="41.76">
        <route edges="1056276226#0 1056276226#1 744825974#4 744825974#5 744825974#6 744825974#7 744825974#0 902979328#0 902979328#1"/>
    </vehicle>
    <vehicle id="64" depart="46.08">
        <route edges="97637311#0 97637311#1 744825974#7 744825974#0 744825974#1 744825974#2 744825974#3 744825974#4 946621531"/>
    </vehicle>
    <vehicle id="66" depart="47.52">
        <route edges="97637311#0 97637311#1 744825974#7 744825974#0 744825974#1 744825974#2 984589551#0 984589551#1 984589551#2"/>
    </vehicle>
    <vehicle id="67" depart="48.24">
        <route edges="-744825973 -744825964#1 -744825964#0 744825964#0 744825964#1 744825973"/>
    </vehicle>
    <vehicle id="69" depart="49.68">
        <route edges="744825964#0 744825964#1 744825973 -744825973 -744825964#1 -744825964#0"/>
    </vehicle>
    <vehicle id="70" depart="50.40">
        <route edges="624410090 744825974#6 744825974#7 744825974#0 902979328#0 902979328#1"/>
    </vehicle>
    <vehicle id="71" depart="51.12">
        <route edges="1056276226#0 1056276226#1 744825974#4 744825974#5 744825974#6 744825974#7 744825974#0 744825974#1 744825974#2 984589551#0 984589551#1 984589551#2"/>
    </vehicle>
    <vehicle id="72" depart="51.84">
        <route edges="624410090 744825974#6 -97637311#1 -97637311#0"/>
    </vehicle>
    <vehicle id="73" depart="52.56">
        <route edges="744825961#0 744825961#1 744825974#2 744825974#3 744825974#4 946621531"/>
    </vehicle>
    <vehicle id="74" depart="53.28">
        <route edges="1056276226#0 1056276226#1 744825974#4 744825974#5 744825974#6 -97637311#1 -97637311#0"/>
    </vehicle>
    <vehicle id="75" depart="54.00">
        <route edges="97637311#0 97637311#1 744825974#7 744825974#0 902979328#0 902979328#1"/>
    </vehicle>
    <vehicle id="76" depart="54.72">
        <route edges="624410090 744825974#6 744825974#7 744825974#0 902979328#0 902979328#1"/>
    </vehicle>
    <vehicle id="78" depart="56.16">
        <route edges="624410090 744825974#6 744825974#7 744825974#0 902979328#0 902979328#1"/>
    </vehicle>
    <vehicle id="79" depart="56.88">
        <route edges="1056276226#0 1056276226#1 744825974#4 744825974#5 744825974#6 -97637311#1 -97637311#0"/>
    </vehicle>
    <vehicle id="81" depart="58.32">
        <route edges="1056276226#0 1056276226#1 744825974#4 744825974#5 744825974#6 744825974#7 744825974#0 744825974#1 744825974#2 984589551#0 984589551#1 984589551#2"/>
    </vehicle>
    <vehicle id="83" depart="59.76">
        <route edges="1056276226#0 1056276226#1 744825974#4 946621531"/>
    </vehicle>
    <vehicle id="85" depart="61.20">
        <route edges="97637311#0 97637311#1 744825974#7 744825974#0 902979328#0 902979328#1"/>
    </vehicle>
    <vehicle id="86" depart="61.92">
        <route edges="624410090 744825974#6 744825974#7 744825974#0 744825974#1 744825974#2 744825974#3 744825974#4 946621531"/>
    </vehicle>
    <vehicle id="88" depart="63.36">
        <route edges="-744825973 -744825964#1 -744825964#0 744825964#0 744825964#1 744825973"/>
    </vehicle>
    <vehicle id="93" depart="66.96">
        <route edges="97637311#0 97637311#1 744825974#7 744825974#0 744825974#1 744825974#2 744825974#3 744825974#4 744825974#5 744825974#6 -97637311#1 -97637311#0"/>
    </vehicle>
    <vehicle id="95" depart="68.40">
        <route edges="624410090 744825974#6 -97637311#1 -97637311#0"/>
    </vehicle>
    <vehicle id="96" depart="69.12">
        <route edges="1056276226#0 1056276226#1 744825974#4 744825974#5 744825974#6 744825974#7 744825974#0 744825974#1 744825974#2 984589551#0 984589551#1 984589551#2"/>
    </vehicle>
    <vehicle id="97" depart="69.84">
        <route edges="624410090 744825974#6 744825974#7 744825974#0 744825974#1 744825974#2 984589551#0 984589551#1 984589551#2"/>
    </vehicle>
    <vehicle id="99" depart="71.28">
        <route edges="97637311#0 97637311#1 744825974#7 744825974#0 744825974#1 744825974#2 984589551#0 984589551#1 984589551#2"/>
    </vehicle>
    <vehicle id="100" depart="72.00">
        <route edges="97637311#0 97637311#1 744825974#7 744825974#0 744825974#1 744825974#2 984589551#0 984589551#1 984589551#2"/>
    </vehicle>
    <vehicle id="102" depart="73.44">
        <route edges="624410090 744825974#6 -97637311#1 -97637311#0"/>
    </vehicle>
    <vehicle id="104" depart="74.88">
        <route edges="624410090 744825974#6 744825974#7 744825974#0 744825974#1 744825974#2 984589551#0 984589551#1 984589551#2"/>
    </vehicle>
    <vehicle id="105" depart="75.60">
        <route edges="1056276226#0 1056276226#1 744825974#4 946621531"/>
    </vehicle>
    <vehicle id="107" depart="77.04">
        <route edges="97637311#0 97637311#1 744825974#7 744825974#0 744825974#1 744825974#2 984589551#0 984589551#1 984589551#2"/>
    </vehicle>
    <vehicle id="108" depart="77.76">
        <route edges="744825961#0 744825961#1 744825974#2 744825974#3 744825974#4 946621531"/>
    </vehicle>
    <vehicle id="110" depart="79.20">
        <route edges="97637311#0 97637311#1 744825974#7 744825974#0 902979328#0 902979328#1"/>
    </vehicle>
    <vehicle id="111" depart="79.92">
        <route edges="744825961#0 744825961#1 744825974#2 744825974#3 744825974#4 946621531"/>
    </vehicle>
    <vehicle id="113" depart="81.36">
        <route edges="744825961#0 744825961#1 744825974#2 984589551#0 984589551#1 984589551#2"/>
    </vehicle>
    <vehicle id="116" depart="83.52">
        <route edges="744825961#0 744825961#1 744825974#2 744825974#3 744825974#4 946621531"/>
    </vehicle>
    <vehicle id="118" depart="84.96">
        <route edges="97637311#0 97637311#1 744825974#7 744825974#0 744825974#1 744825974#2 744825974#3 744825974#4 744825974#5 744825974#6 -97637311#1 -97637311#0"/>
    </vehicle>
    <vehicle id="119" depart="85.68">
        <route edges="744825961#0 744825961#1 744825974#2 744825974#3 744825974#4 744825974#5 744825974#6 744825974#7 744825974#0 902979328#0 902979328#1"/>
    </vehicle>
    <vehicle id="120" depart="86.40">
        <route edges="624410090 744825974#6 744825974#7 744825974#0 902979328#0 902979328#1"/>
    </vehicle>
    <vehicle id="121" depart="87.12">
        <route edges="744825961#0 744825961#1 744825974#2 984589551#0 984589551#1 984589551#2"/>
    </vehicle>
    <vehicle id="122" depart="87.84">
        <route edges="1056276226#0 1056276226#1 744825974#4 946621531"/>
    </vehicle>
    <vehicle id="125" depart="90.00">
        <route edges="1056276226#0 1056276226#1 744825974#4 946621531"/>
    </vehicle>
    <vehicle id="126" depart="90.72">
        <route edges="-744825973 -744825964#1 -744825964#0 744825964#0 744825964#1 744825973"/>
    </vehicle>
    <vehicle id="127" depart="91.44">
        <route edges="97637311#0 97637311#1 744825974#7 744825974#0 744825974#1 744825974#2 984589551#0 984589551#1 984589551#2"/>
    </vehicle>
    <vehicle id="129" depart="92.88">
        <route edges="1056276226#0 1056276226#1 744825974#4 744825974#5 744825974#6 744825974#7 744825974#0 744825974#1 744825974#2 984589551#0 984589551#1 984589551#2"/>
    </vehicle>
    <vehicle id="130" depart="93.60">
        <route edges="97637311#0 97637311#1 744825974#7 744825974#0 744825974#1 744825974#2 984589551#0 984589551#1 984589551#2"/>
    </vehicle>
    <vehicle id="132" depart="95.04">
        <route edges="97637311#0 97637311#1 744825974#7 744825974#0 744825974#1 744825974#2 744825974#3 744825974#4 946621531"/>
    </vehicle>
    <vehicle id="133" depart="95.76">
        <route edges="744825961#0 744825961#1 744825974#2 984589551#0 984589551#1 984589551#2"/>
    </vehicle>
    <vehicle id="136" depart="97.92">
        <route edges="744825961#0 744825961#1 744825974#2 984589551#0 984589551#1 984589551#2"/>
    </vehicle>
    <vehicle id="137" depart="98.64">
        <route edges="-744825973 -744825964#1 -744825964#0"/>
    </vehicle>
    <vehicle id="139" depart="100.08">
        <route edges="1056276226#0 1056276226#1 744825974#4 744825974#5 744825974#6 744825974#7 744825974#0 902979328#0 902979328#1"/>
    </vehicle>
    <vehicle id="141" depart="101.52">
        <route edges="744825961#0 744825961#1 744825974#2 744825974#3 744825974#4 744825974#5 744825974#6 -97637311#1 -97637311#0"/>
    </vehicle>
    <vehicle id="142" depart="102.24">
        <route edges="624410090 744825974#6 744825974#7 744825974#0 744825974#1 744825974#2 984589551#0 984589551#1 984589551#2"/>
    </vehicle>
    <vehicle id="144" depart="103.68">
        <route edges="624410090 744825974#6 -97637311#1 -97637311#0"/>
    </vehicle>
    <vehicle id="146" depart="105.12">
        <route edges="744825961#0 744825961#1 744825974#2 744825974#3 744825974#4 744825974#5 744825974#6 -97637311#1 -97637311#0"/>
    </vehicle>
    <vehicle id="150" depart="108.00">
        <route edges="97637311#0 97637311#1 744825974#7 744825974#0 902979328#0 902979328#1"/>
    </vehicle>
    <vehicle id="151" depart="108.72">
        <route edges="97637311#0 97637311#1 744825974#7 744825974#0 902979328#0 902979328#1"/>
    </vehicle>
    <vehicle id="152" depart="109.44">
        <route edges="-744825973 -744825964#1 -744825964#0"/>
    </vehicle>
    <vehicle id="153" depart="110.16">
        <route edges="1056276226#0 1056276226#1 744825974#4 744825974#5 744825974#6 744825974#7 744825974#0 744825974#1 744825974#2 984589551#0 984589551#1 984589551#2"/>
    </vehicle>
    <vehicle id="155" depart="111.60">
        <route edges="97637311#0 97637311#1 744825974#7 744825974#0 744825974#1 744825974#2 744825974#3 744825974#4 744825974#5 744825974#6 -97637311#1 -97637311#0"/>
    </vehicle>
    <vehicle id="158" depart="113.76">
        <route edges="624410090 744825974#6 744825974#7 744825974#0 902979328#0 902979328#1"/>
    </vehicle>
    <vehicle id="160" depart="115.20">
        <route edges="97637311#0 97637311#1 744825974#7 744825974#0 744825974#1 744825974#2 984589551#0 984589551#1 984589551#2"/>
    </vehicle>
    <vehicle id="163" depart="117.36">
        <route edges="1056276226#0 1056276226#1 744825974#4 744825974#5 744825974#6 744825974#7 744825974#0 744825974#1 744825974#2 984589551#0 984589551#1 984589551#2"/>
    </vehicle>
    <vehicle id="166" depart="119.52">
        <route edges="744825964#0 744825964#1 744825973 -744825973 -744825964#1 -744825964#0"/>
    </vehicle>
    <vehicle id="167" depart="120.24">
        <route edges="97637311#0 97637311#1 744825974#7 744825974#0 744825974#1 744825974#2 984589551#0 984589551#1 984589551#2"/>
    </vehicle>
    <vehicle id="168" depart="120.96">
        <route edges="1056276226#0 1056276226#1 744825974#4 946621531"/>
    </vehicle>
    <vehicle id="169" depart="121.68">
        <route edges="624410090 744825974#6 -97637311#1 -97637311#0"/>
    </vehicle>
    <vehicle id="172" depart="123.84">
        <route edges="1056276226#0 1056276226#1 744825974#4 744825974#5 744825974#6 744825974#7 744825974#0 744825974#1 744825974#2 984589551#0 984589551#1 984589551#2"/>
    </vehicle>
    <vehicle id="173" depart="124.56">
        <route edges="97637311#0 97637311#1 744825974#7 744825974#0 744825974#1 744825974#2 744825974#3 744825974#4 744825974#5 744825974#6 -97637311#1 -97637311#0"/>
    </vehicle>
    <vehicle id="175" depart="126.00">
        <route edges="97637311#0 97637311#1 744825974#7 744825974#0 902979328#0 902979328#1"/>
    </vehicle>
    <vehicle id="177" depart="127.44">
        <route edges="97637311#0 97637311#1 744825974#7 744825974#0 744825974#1 744825974#2 744825974#3 744825974#4 744825974#5 744825974#6 -97637311#1 -97637311#0"/>
    </vehicle>
    <vehicle id="178" depart="128.16">
        <route edges="97637311#0 97637311#1 744825974#7 744825974#0 744825974#1 744825974#2 744825974#3 744825974#4 744825974#5 744825974#6 -97637311#1 -97637311#0"/>
    </vehicle>
    <vehicle id="179" depart="128.88">
        <route edges="-744825973 -744825964#1 -744825964#0 744825964#0 744825964#1 744825973"/>
    </vehicle>
    <vehicle id="181" depart="130.32">
        <route edges="744825961#0 744825961#1 744825974#2 744825974#3 744825974#4 744825974#5 744825974#6 744825974#7 744825974#0 902979328#0 902979328#1"/>
    </vehicle>
    <vehicle id="182" depart="131.04">
        <route edges="624410090 744825974#6 744825974#7 744825974#0 902979328#0 902979328#1"/>
    </vehicle>
    <vehicle id="183" depart="131.76">
        <route edges="1056276226#0 1056276226#1 744825974#4 946621531"/>
    </vehicle>
    <vehicle id="185" depart="133.20">
        <route edges="744825961#0 744825961#1 744825974#2 744825974#3 744825974#4 946621531"/>
    </vehicle>
    <vehicle id="188" depart="135.36">
        <route edges="744825961#0 744825961#1 744825974#2 744825974#3 744825974#4 744825974#5 744825974#6 -97637311#1 -97637311#0"/>
    </vehicle>
    <vehicle id="189" depart="136.08">
        <route edges="1056276226#0 1056276226#1 744825974#4 744825974#5 744825974#6 744825974#7 744825974#0 744825974#1 744825974#2 984589551#0 984589551#1 984589551#2"/>
    </vehicle>
    <vehicle id="192" depart="138.24">
        <route edges="624410090 744825974#6 -97637311#1 -97637311#0"/>
    </vehicle>
    <vehicle id="193" depart="138.96">
        <route edges="-744825973 -744825964#1 -744825964#0 744825964#0 744825964#1 744825973"/>
    </vehicle>
    <vehicle id="194" depart="139.68">
        <route edges="97637311#0 97637311#1 744825974#7 744825974#0 744825974#1 744825974#2 744825974#3 744825974#4 946621531"/>
    </vehicle>
    <vehicle id="195" depart="140.40">
        <route edges="97637311#0 97637311#1 744825974#7 744825974#0 902979328#0 902979328#1"/>
    </vehicle>
    <vehicle id="196" depart="141.12">
        <route edges="1056276226#0 1056276226#1 744825974#4 744825974#5 744825974#6 744825974#7 744825974#0 902979328#0 902979328#1"/>
    </vehicle>
    <vehicle id="198" depart="142.56">
        <route edges="624410090 744825974#6 744825974#7 744825974#0 902979328#0 902979328#1"/>
    </vehicle>
    <vehicle id="200" depart="144.00">
        <route edges="624410090 744825974#6 -97637311#1 -97637311#0"/>
    </vehicle>
    <vehicle id="201" depart="144.72">
        <route edges="624410090 744825974#6 744825974#7 744825974#0 744825974#1 744825974#2 984589551#0 984589551#1 984589551#2"/>
    </vehicle>
    <vehicle id="210" depart="151.20">
        <route edges="624410090 744825974#6 744825974#7 744825974#0 902979328#0 902979328#1"/>
    </vehicle>
    <vehicle id="211" depart="151.92">
        <route edges="1056276226#0 1056276226#1 744825974#4 946621531"/>
    </vehicle>
    <vehicle id="212" depart="152.64">
        <route edges="624410090 744825974#6 -97637311#1 -97637311#0"/>
    </vehicle>
    <vehicle id="215" depart="154.80">
        <route edges="-744825973 -744825964#1 -744825964#0 744825964#0 744825964#1 744825973"/>
    </vehicle>
    <vehicle id="216" depart="155.52">
        <route edges="1056276226#0 1056276226#1 744825974#4 744825974#5 744825974#6 744825974#7 744825974#0 744825974#1 744825974#2 984589551#0 984589551#1 984589551#2"/>
    </vehicle>
    <vehicle id="218" depart="156.96">
        <route edges="1056276226#0 1056276226#1 744825974#4 744825974#5 744825974#6 744825974#7 744825974#0 744825974#1 744825974#2 984589551#0 984589551#1 984589551#2"/>
    </vehicle>
    <vehicle id="219" depart="157.68">
        <route edges="624410090 744825974#6 744825974#7 744825974#0 744825974#1 744825974#2 744825974#3 744825974#4 946621531"/>
    </vehicle>
    <vehicle id="221" depart="159.12">
        <route edges="744825961#0 744825961#1 744825974#2 984589551#0 984589551#1 984589551#2"/>
    </vehicle>
    <vehicle id="222" depart="159.84">
        <route edges="97637311#0 97637311#1 744825974#7 744825974#0 902979328#0 902979328#1"/>
    </vehicle>
    <vehicle id="225" depart="162.00">
        <route edges="97637311#0 97637311#1 744825974#7 744825974#0 744825974#1 744825974#2 744825974#3 744825974#4 946621531"/>
    </vehicle>
    <vehicle id="226" depart="162.72">
        <route edges="624410090 744825974#6 -97637311#1 -97637311#0"/>
    </vehicle>
    <vehicle id="227" depart="163.44">
        <route edges="1056276226#0 1056276226#1 744825974#4 744825974#5 744825974#6 744825974#7 744825974#0 902979328#0 902979328#1"/>
    </vehicle>
    <vehicle id="229" depart="164.88">
        <route edges="744825961#0 744825961#1 744825974#2 744825974#3 744825974#4 744825974#5 744825974#6 -97637311#1 -97637311#0"/>
    </vehicle>
    <vehicle id="231" depart="166.32">
        <route edges="1056276226#0 1056276226#1 744825974#4 744825974#5 744825974#6 -97637311#1 -97637311#0"/>
    </vehicle>
    <vehicle id="233" depart="167.76">
        <route edges="1056276226#0 1056276226#1 744825974#4 946621531"/>
    </vehicle>
    <vehicle id="234" depart="168.48">
        <route edges="744825964#0 744825964#1 744825973 -744825973 -744825964#1 -744825964#0"/>
    </vehicle>
    <vehicle id="235" depart="169.20">
        <route edges="624410090 744825974#6 744825974#7 744825974#0 902979328#0 902979328#1"/>
    </vehicle>
    <vehicle id="236" depart="169.92">
        <route edges="624410090 744825974#6 -97637311#1 -97637311#0"/>
    </vehicle>
    <vehicle id="237" depart="170.64">
        <route edges="624410090 744825974#6 744825974#7 744825974#0 744825974#1 744825974#2 984589551#0 984589551#1 984589551#2"/>
    </vehicle>
    <vehicle id="238" depart="171.36">
        <route edges="744825961#0 744825961#1 744825974#2 744825974#3 744825974#4 946621531"/>
    </vehicle>
    <vehicle id="239" depart="172.08">
        <route edges="97637311#0 97637311#1 744825974#7 744825974#0 744825974#1 744825974#2 744825974#3 744825974#4 946621531"/>
    </vehicle>
    <vehicle id="241" depart="173.52">
        <route edges="624410090 744825974#6 744825974#7 744825974#0 744825974#1 744825974#2 744825974#3 744825974#4 946621531"/>
    </vehicle>
    <vehicle id="242" depart="174.24">
        <route edges="97637311#0 97637311#1 744825974#7 744825974#0 744825974#1 744825974#2 984589551#0 984589551#1 984589551#2"/>
    </vehicle>
    <vehicle id="243" depart="174.96">
        <route edges="624410090 744825974#6 744825974#7 744825974#0 744825974#1 744825974#2 744825974#3 744825974#4 946621531"/>
    </vehicle>
    <vehicle id="244" depart="175.68">
        <route edges="744825961#0 744825961#1 744825974#2 744825974#3 744825974#4 744825974#5 744825974#6 744825974#7 744825974#0 902979328#0 902979328#1"/>
    </vehicle>
    <vehicle id="245" depart="176.40">
        <route edges="1056276226#0 1056276226#1 744825974#4 744825974#5 744825974#6 -97637311#1 -97637311#0"/>
    </vehicle>
    <vehicle id="247" depart="177.84">
        <route edges="624410090 744825974#6 744825974#7 744825974#0 744825974#1 744825974#2 744825974#3 744825974#4 946621531"/>
    </vehicle>
    <vehicle id="251" depart="180.72">
        <route edges="624410090 744825974#6 744825974#7 744825974#0 902979328#0 902979328#1"/>
    </vehicle>
    <vehicle id="253" depart="182.16">
        <route edges="-744825973 -744825964#1 -744825964#0 744825964#0 744825964#1 744825973"/>
    </vehicle>
    <vehicle id="254" depart="182.88">
        <route edges="-744825973 -744825964#1 -744825964#0 744825964#0 744825964#1 744825973"/>
    </vehicle>
    <vehicle id="255" depart="183.60">
        <route edges="1056276226#0 1056276226#1 744825974#4 744825974#5 744825974#6 -97637311#1 -97637311#0"/>
    </vehicle>
    <vehicle id="256" depart="184.32">
        <route edges="744825964#0 744825964#1 744825973"/>
    </vehicle>
    <vehicle id="261" depart="187.92">
        <route edges="744825961#0 744825961#1 744825974#2 744825974#3 744825974#4 946621531"/>
    </vehicle>
    <vehicle id="262" depart="188.64">
        <route edges="744825961#0 744825961#1 744825974#2 744825974#3 744825974#4 946621531"/>
    </vehicle>
    <vehicle id="263" depart="189.36">
        <route edges="97637311#0 97637311#1 744825974#7 744825974#0 744825974#1 744825974#2 744825974#3 744825974#4 744825974#5 744825974#6 -97637311#1 -97637311#0"/>
    </vehicle>
    <vehicle id="264" depart="190.08">
        <route edges="-744825973 -744825964#1 -744825964#0"/>
    </vehicle>
    <vehicle id="266" depart="191.52">
        <route edges="744825961#0 744825961#1 744825974#2 744825974#3 744825974#4 744825974#5 744825974#6 -97637311#1 -97637311#0"/>
    </vehicle>
    <vehicle id="268" depart="192.96">
        <route edges="1056276226#0 1056276226#1 744825974#4 744825974#5 744825974#6 744825974#7 744825974#0 902979328#0 902979328#1"/>
    </vehicle>
    <vehicle id="269" depart="193.68">
        <route edges="744825964#0 744825964#1 744825973 -744825973 -744825964#1 -744825964#0"/>
    </vehicle>
    <vehicle id="271" depart="195.12">
        <route edges="-744825973 -744825964#1 -744825964#0"/>
    </vehicle>
    <vehicle id="272" depart="195.84">
        <route edges="1056276226#0 1056276226#1 744825974#4 946621531"/>
    </vehicle>
    <vehicle id="274" depart="197.28">
        <route edges="744825964#0 744825964#1 744825973 -744825973 -744825964#1 -744825964#0"/>
    </vehicle>
    <vehicle id="277" depart="199.44">
        <route edges="97637311#0 97637311#1 744825974#7 744825974#0 902979328#0 902979328#1"/>
    </vehicle>
    <vehicle id="279" depart="200.88">
        <route edges="744825964#0 744825964#1 744825973"/>
    </vehicle>
    <vehicle id="282" depart="203.04">
        <route edges="97637311#0 97637311#1 744825974#7 744825974#0 744825974#1 744825974#2 744825974#3 744825974#4 946621531"/>
    </vehicle>
    <vehicle id="284" depart="204.48">
        <route edges="744825961#0 744825961#1 744825974#2 744825974#3 744825974#4 946621531"/>
    </vehicle>
    <vehicle id="285" depart="205.20">
        <route edges="744825964#0 744825964#1 744825973"/>
    </vehicle>
    <vehicle id="287" depart="206.64">
        <route edges="1056276226#0 1056276226#1 744825974#4 946621531"/>
    </vehicle>
    <vehicle id="289" depart="208.08">
        <route edges="624410090 744825974#6 744825974#7 744825974#0 744825974#1 744825974#2 744825974#3 744825974#4 946621531"/>
    </vehicle>
    <vehicle id="290" depart="208.80">
        <route edges="1056276226#0 1056276226#1 744825974#4 744825974#5 744825974#6 744825974#7 744825974#0 744825974#1 744825974#2 984589551#0 984589551#1 984589551#2"/>
    </vehicle>
    <vehicle id="291" depart="209.52">
        <route edges="744825964#0 744825964#1 744825973 -744825973 -744825964#1 -744825964#0"/>
    </vehicle>
    <vehicle id="292" depart="210.24">
        <route edges="97637311#0 97637311#1 744825974#7 744825974#0 744825974#1 744825974#2 744825974#3 744825974#4 744825974#5 744825974#6 -97637311#1 -97637311#0"/>
    </vehicle>
    <vehicle id="293" depart="210.96">