<?xml version="1.0" encoding="UTF-8"?>

<!-- generated on 2024-09-03 01:37:52 by Eclipse SUMO netconvert Version 1.20.0
<configuration xmlns:xsi="http://www.w3.org/2001/XMLSchema-instance" xsi:noNamespaceSchemaLocation="http://sumo.dlr.de/xsd/netconvertConfiguration.xsd">

    <input>
        <osm-files value="train_files/roundabout/middle/osm_files/map(45).osm"/>
    </input>

    <output>
        <output-file value="train_files/roundabout/middle/outputs/map(45)_dict/map(45)/map(45).net.xml"/>
    </output>

    <projection>
        <proj.utm value="true"/>
    </projection>

    <building_defaults>
        <default.junctions.keep-clear value="false"/>
    </building_defaults>

</configuration>
-->

<net version="1.20" junctionCornerDetail="5" limitTurnSpeed="5.50" xmlns:xsi="http://www.w3.org/2001/XMLSchema-instance" xsi:noNamespaceSchemaLocation="http://sumo.dlr.de/xsd/net_file.xsd">

    <location netOffset="-485203.51,-5415554.22" convBoundary="0.00,0.00,511.82,522.73" origBoundary="2.798132,48.892772,2.805117,48.897471" projParameter="+proj=utm +zone=31 +ellps=WGS84 +datum=WGS84 +units=m +no_defs"/>

    <type id="highway.footway" priority="1" numLanes="1" speed="2.78" allow="pedestrian" oneway="1" width="2.00"/>
    <type id="highway.residential" priority="3" numLanes="1" speed="13.89" disallow="tram rail_urban rail rail_electric rail_fast ship container cable_car subway aircraft wheelchair scooter drone" oneway="0"/>
    <type id="highway.secondary" priority="11" numLanes="1" speed="27.78" disallow="tram rail_urban rail rail_electric rail_fast ship container cable_car subway aircraft wheelchair scooter drone" oneway="0"/>
    <type id="highway.service" priority="1" numLanes="1" speed="5.56" allow="pedestrian delivery bicycle" oneway="0"/>

    <edge id=":1747976368_0" function="internal">
        <lane id=":1747976368_0_0" index="0" disallow="tram rail_urban rail rail_electric rail_fast ship container cable_car subway aircraft wheelchair scooter drone" speed="27.78" length="8.24" shape="261.08,425.66 258.69,425.35 256.90,425.68 255.20,425.83 253.07,424.96"/>
    </edge>
    <edge id=":1747976368_1" function="internal">
        <lane id=":1747976368_1_0" index="0" disallow="tram rail_urban rail rail_electric rail_fast ship container cable_car subway aircraft wheelchair scooter drone" speed="4.36" length="1.32" shape="261.08,425.66 259.89,425.09"/>
    </edge>
    <edge id=":1747976368_4" function="internal">
        <lane id=":1747976368_4_0" index="0" disallow="tram rail_urban rail rail_electric rail_fast ship container cable_car subway aircraft wheelchair scooter drone" speed="4.36" length="3.91" shape="259.89,425.09 259.71,425.00 259.23,424.19 259.64,423.22 260.94,422.10"/>
    </edge>
    <edge id=":1747976368_2" function="internal">
        <lane id=":1747976368_2_0" index="0" disallow="tram rail_urban rail rail_electric rail_fast ship container cable_car subway aircraft wheelchair scooter drone" speed="6.56" length="6.51" shape="254.84,422.29 256.33,423.02 257.85,423.23 259.38,422.92 260.94,422.10"/>
    </edge>
    <edge id=":1747976368_3" function="internal">
        <lane id=":1747976368_3_0" index="0" disallow="tram rail_urban rail rail_electric rail_fast ship container cable_car subway aircraft wheelchair scooter drone" speed="3.65" length="1.26" shape="254.84,422.29 255.33,423.45"/>
    </edge>
    <edge id=":1747976368_5" function="internal">
        <lane id=":1747976368_5_0" index="0" disallow="tram rail_urban rail rail_electric rail_fast ship container cable_car subway aircraft wheelchair scooter drone" speed="3.65" length="3.42" shape="255.33,423.45 255.40,423.62 255.29,424.51 254.52,424.96 253.07,424.96"/>
    </edge>
    <edge id=":288774928_0" function="internal">
        <lane id=":288774928_0_0" index="0" disallow="tram rail_urban rail rail_electric rail_fast ship container cable_car subway aircraft wheelchair scooter drone" speed="3.65" length="4.67" shape="337.64,436.68 338.56,437.79 338.71,438.67 338.10,439.32 336.72,439.74"/>
    </edge>
    <edge id=":288775782_0" function="internal">
        <lane id=":288775782_0_0" index="0" disallow="tram rail_urban rail rail_electric rail_fast ship container cable_car subway aircraft wheelchair scooter drone" speed="3.65" length="4.67" shape="-0.58,111.48 -1.41,110.30 -1.49,109.41 -0.83,108.81 0.58,108.50"/>
    </edge>
    <edge id=":288775920_0" function="internal">
        <lane id=":288775920_0_0" index="0" disallow="tram rail_urban rail rail_electric rail_fast ship container cable_car subway aircraft wheelchair scooter drone" speed="3.65" length="4.67" shape="29.19,391.43 28.08,390.50 27.77,389.66 28.25,388.91 29.53,388.24"/>
    </edge>
    <edge id=":7773201623_0" function="internal">
        <lane id=":7773201623_0_0" index="0" disallow="tram rail_urban rail rail_electric rail_fast ship container cable_car subway aircraft wheelchair scooter drone" speed="8.33" length="5.17" shape="253.57,402.74 249.56,399.47"/>
    </edge>
    <edge id=":7773201623_1" function="internal">
        <lane id=":7773201623_1_0" index="0" disallow="tram rail_urban rail rail_electric rail_fast ship container cable_car subway aircraft wheelchair scooter drone" speed="8.33" length="5.11" shape="251.61,397.01 255.57,400.24"/>
    </edge>
    <edge id=":8210227525_0" function="internal">
        <lane id=":8210227525_0_0" index="0" allow="pedestrian delivery bicycle" speed="5.06" length="4.98" shape="319.26,452.96 317.90,452.87 316.83,453.23 316.06,454.05 315.58,455.33"/>
    </edge>
    <edge id=":8210227525_1" function="internal">
        <lane id=":8210227525_1_0" index="0" allow="pedestrian delivery bicycle" speed="5.56" length="9.93" shape="319.26,452.96 316.68,452.04 314.95,450.55 314.04,448.48 313.98,445.84"/>
    </edge>
    <edge id=":8210227525_2" function="internal">
        <lane id=":8210227525_2_0" index="0" allow="pedestrian delivery bicycle" speed="3.65" length="4.67" shape="319.26,452.96 318.25,451.93 318.02,451.06 318.58,450.36 319.92,449.82"/>
    </edge>
    <edge id=":8210227525_3" function="internal">
        <lane id=":8210227525_3_0" index="0" allow="pedestrian delivery bicycle" speed="5.22" length="5.08" shape="317.16,446.22 317.20,447.55 317.67,448.60 318.58,449.35 319.92,449.82"/>
    </edge>
    <edge id=":8210227525_4" function="internal">
        <lane id=":8210227525_4_0" index="0" allow="pedestrian delivery bicycle" speed="5.56" length="9.25" shape="317.16,446.22 316.82,448.95 316.54,450.81 316.17,452.65 315.58,455.33"/>
    </edge>
    <edge id=":8210227525_5" function="internal">
        <lane id=":8210227525_5_0" index="0" allow="pedestrian delivery bicycle" speed="3.65" length="4.67" shape="317.16,446.22 316.22,447.32 315.38,447.62 314.63,447.13 313.98,445.84"/>
    </edge>
    <edge id=":8210227525_6" function="internal">
        <lane id=":8210227525_6_0" index="0" allow="pedestrian delivery bicycle" speed="5.56" length="8.93" shape="312.45,454.63 313.03,452.04 313.38,450.26 313.65,448.47 313.98,445.84"/>
    </edge>
    <edge id=":8210227525_7" function="internal">
        <lane id=":8210227525_7_0" index="0" allow="pedestrian delivery bicycle" speed="5.56" length="10.09" shape="312.45,454.63 313.43,452.05 315.00,450.39 317.16,449.65 319.92,449.82"/>
    </edge>
    <edge id=":8210227525_8" function="internal">
        <lane id=":8210227525_8_0" index="0" allow="pedestrian delivery bicycle" speed="3.65" length="4.67" shape="312.45,454.63 313.50,453.63 314.37,453.42 315.06,453.98 315.58,455.33"/>
    </edge>
    <edge id=":8210227531_0" function="internal">
        <lane id=":8210227531_0_0" index="0" allow="pedestrian delivery bicycle" speed="5.56" length="0.31" shape="293.37,445.40 293.06,445.36"/>
    </edge>
    <edge id=":8210227531_1" function="internal">
        <lane id=":8210227531_1_0" index="0" allow="pedestrian delivery bicycle" speed="5.56" length="0.27" shape="293.44,442.18 293.71,442.21"/>
    </edge>
    <edge id=":8210227532_0" function="internal">
        <lane id=":8210227532_0_0" index="0" allow="pedestrian delivery bicycle" speed="5.56" length="0.11" shape="287.34,444.67 287.24,444.66"/>
    </edge>
    <edge id=":8210227532_1" function="internal">
        <lane id=":8210227532_1_0" index="0" allow="pedestrian delivery bicycle" speed="5.56" length="0.33" shape="287.40,441.47 287.73,441.50"/>
    </edge>
    <edge id=":8210227537_0" function="internal">
        <lane id=":8210227537_0_0" index="0" allow="pedestrian delivery bicycle" speed="4.98" length="5.57" shape="273.78,448.66 272.17,448.24 270.93,448.42 270.05,449.21 269.54,450.60"/>
    </edge>
    <edge id=":8210227537_1" function="internal">
        <lane id=":8210227537_1_0" index="0" allow="pedestrian delivery bicycle" speed="5.56" length="11.63" shape="273.78,448.66 270.91,447.20 268.75,445.72 266.57,444.31 263.61,443.10"/>
    </edge>
    <edge id=":8210227537_2" function="internal">
        <lane id=":8210227537_2_0" index="0" allow="pedestrian delivery bicycle" speed="5.56" length="13.10" shape="273.78,448.66 271.02,447.01 269.22,444.65 268.38,441.60 268.50,437.85"/>
    </edge>
    <edge id=":8210227537_3" function="internal">
        <lane id=":8210227537_3_0" index="0" allow="pedestrian delivery bicycle" speed="4.25" length="5.37" shape="273.78,448.66 273.22,447.10 273.40,446.08 274.32,445.62 275.98,445.71"/>
    </edge>
    <edge id=":8210227537_4" function="internal">
        <lane id=":8210227537_4_0" index="0" allow="pedestrian delivery bicycle" speed="5.56" length="10.93" shape="271.66,438.31 271.42,442.28 272.06,444.84 273.58,445.98 275.98,445.71"/>
    </edge>
    <edge id=":8210227537_5" function="internal">
        <lane id=":8210227537_5_0" index="0" allow="pedestrian delivery bicycle" speed="5.56" length="12.46" shape="271.66,438.31 269.54,450.60"/>
    </edge>
    <edge id=":8210227537_6" function="internal">
        <lane id=":8210227537_6_0" index="0" allow="pedestrian delivery bicycle" speed="5.56" length="11.07" shape="271.66,438.31 270.78,441.20 269.15,442.95 266.76,443.59 263.61,443.10"/>
    </edge>
    <edge id=":8210227537_7" function="internal">
        <lane id=":8210227537_7_0" index="0" allow="pedestrian delivery bicycle" speed="3.65" length="4.67" shape="271.66,438.31 270.70,439.39 269.85,439.66 269.11,439.15 268.50,437.85"/>
    </edge>
    <edge id=":8210227537_8" function="internal">
        <lane id=":8210227537_8_0" index="0" allow="pedestrian delivery bicycle" speed="4.90" length="5.18" shape="264.73,440.09 266.20,440.32 267.32,440.02 268.08,439.20 268.50,437.85"/>
    </edge>
    <edge id=":8210227537_9" function="internal">
        <lane id=":8210227537_9_0" index="0" allow="pedestrian delivery bicycle" speed="5.56" length="13.04" shape="264.73,440.09 267.84,441.80 270.38,444.05 272.90,445.72 275.98,445.71"/>
    </edge>
    <edge id=":8210227537_10" function="internal">
        <lane id=":8210227537_10_0" index="0" allow="pedestrian delivery bicycle" speed="5.56" length="12.85" shape="264.73,440.09 267.46,441.47 269.17,443.68 269.86,446.72 269.54,450.60"/>
    </edge>
    <edge id=":8210227537_11" function="internal">
        <lane id=":8210227537_11_0" index="0" allow="pedestrian delivery bicycle" speed="3.65" length="4.68" shape="264.73,440.09 265.58,441.26 265.67,442.15 265.02,442.77 263.61,443.10"/>
    </edge>
    <edge id=":8210227537_12" function="internal">
        <lane id=":8210227537_12_0" index="0" allow="pedestrian delivery bicycle" speed="5.56" length="8.24" shape="266.40,449.99 266.64,447.41 266.26,445.40 265.25,443.97 263.61,443.10"/>
    </edge>
    <edge id=":8210227537_13" function="internal">
        <lane id=":8210227537_13_0" index="0" allow="pedestrian delivery bicycle" speed="5.56" length="12.32" shape="266.40,449.99 268.50,437.85"/>
    </edge>
    <edge id=":8210227537_14" function="internal">
        <lane id=":8210227537_14_0" index="0" allow="pedestrian delivery bicycle" speed="5.56" length="10.57" shape="266.40,449.99 267.07,449.32 268.90,448.39 271.86,447.19 275.98,445.71"/>
    </edge>
    <edge id=":8210227537_15" function="internal">
        <lane id=":8210227537_15_0" index="0" allow="pedestrian delivery bicycle" speed="3.65" length="4.67" shape="266.40,449.99 267.41,448.96 268.27,448.72 268.98,449.27 269.54,450.60"/>
    </edge>
    <edge id=":8210227538_0" function="internal">
        <lane id=":8210227538_0_0" index="0" allow="pedestrian delivery bicycle" speed="3.65" length="4.67" shape="302.69,515.35 301.65,514.36 301.39,513.51 301.92,512.78 303.24,512.20"/>
    </edge>
    <edge id=":8838548538_0" function="internal">
        <lane id=":8838548538_0_0" index="0" allow="pedestrian delivery bicycle" speed="5.56" length="5.50" shape="252.96,440.20 251.45,439.62 250.50,438.95 249.55,438.34 248.00,437.93"/>
    </edge>
    <edge id=":8838548538_1" function="internal">
        <lane id=":8838548538_1_0" index="0" allow="pedestrian delivery bicycle" speed="3.65" length="4.67" shape="252.96,440.20 251.99,439.13 251.80,438.26 252.38,437.58 253.74,437.10"/>
    </edge>
    <edge id=":8838548538_2" function="internal">
        <lane id=":8838548538_2_0" index="0" allow="pedestrian delivery bicycle" speed="5.56" length="4.70" shape="250.10,434.39 250.93,435.50 251.60,436.22 252.43,436.70 253.74,437.10"/>
    </edge>
    <edge id=":8838548538_3" function="internal">
        <lane id=":8838548538_3_0" index="0" allow="pedestrian delivery bicycle" speed="4.67" length="6.55" shape="250.10,434.39 251.14,436.19 251.13,437.39 250.09,437.97 248.00,437.93"/>
    </edge>
    <edge id=":8838548539_0" function="internal">
        <lane id=":8838548539_0_0" index="0" allow="pedestrian delivery bicycle" speed="5.56" length="4.51" shape="245.68,427.29 246.59,428.27 247.17,428.99 247.65,429.77 248.23,430.97"/>
    </edge>
    <edge id=":8838548542_0" function="internal">
        <lane id=":8838548542_0_0" index="0" allow="pedestrian delivery bicycle" speed="4.08" length="1.49" shape="170.48,424.93 170.32,424.57 170.26,424.22 170.29,423.85 170.40,423.49"/>
    </edge>
    <edge id=":8838548576_0" function="internal">
        <lane id=":8838548576_0_0" index="0" disallow="tram rail_urban rail rail_electric rail_fast ship container cable_car subway aircraft wheelchair scooter drone" speed="6.42" length="2.22" shape="286.72,425.05 284.55,424.59"/>
    </edge>
    <edge id=":8838548576_1" function="internal">
        <lane id=":8838548576_1_0" index="0" disallow="tram rail_urban rail rail_electric rail_fast ship container cable_car subway aircraft wheelchair scooter drone" speed="3.65" length="1.32" shape="286.72,425.05 285.87,424.05"/>
    </edge>
    <edge id=":8838548576_4" function="internal">
        <lane id=":8838548576_4_0" index="0" disallow="tram rail_urban rail rail_electric rail_fast ship container cable_car subway aircraft wheelchair scooter drone" speed="3.65" length="3.36" shape="285.87,424.05 285.79,423.95 285.62,423.07 286.22,422.41 287.60,421.97"/>
    </edge>
    <edge id=":8838548576_2" function="internal">
        <lane id=":8838548576_2_0" index="0" disallow="tram rail_urban rail rail_electric rail_fast ship container cable_car subway aircraft wheelchair scooter drone" speed="27.78" length="2.43" shape="285.24,421.48 285.88,421.77 286.37,421.83 286.89,421.84 287.60,421.97"/>
    </edge>
    <edge id=":8838548576_3" function="internal">
        <lane id=":8838548576_3_0" index="0" disallow="tram rail_urban rail rail_electric rail_fast ship container cable_car subway aircraft wheelchair scooter drone" speed="4.19" length="1.44" shape="285.24,421.48 286.37,422.37"/>
    </edge>
    <edge id=":8838548576_5" function="internal">
        <lane id=":8838548576_5_0" index="0" disallow="tram rail_urban rail rail_electric rail_fast ship container cable_car subway aircraft wheelchair scooter drone" speed="4.19" length="3.42" shape="286.37,422.37 286.63,423.19 286.02,423.93 284.55,424.59"/>
    </edge>
    <edge id=":9236284852_0" function="internal">
        <lane id=":9236284852_0_0" index="0" disallow="tram rail_urban rail rail_electric rail_fast ship container cable_car subway aircraft wheelchair scooter drone" speed="3.65" length="4.67" shape="494.87,0.68 495.09,-0.75 495.65,-1.45 496.54,-1.43 497.77,-0.68"/>
    </edge>
    <edge id=":9531002741_0" function="internal">
        <lane id=":9531002741_0_0" index="0" disallow="tram rail_urban rail rail_electric rail_fast ship container cable_car subway aircraft wheelchair scooter drone" speed="27.78" length="6.37" shape="252.91,424.85 247.52,421.46"/>
    </edge>
    <edge id=":9531002741_1" function="internal">
        <lane id=":9531002741_1_0" index="0" disallow="tram rail_urban rail rail_electric rail_fast ship container cable_car subway aircraft wheelchair scooter drone" speed="27.78" length="6.50" shape="249.17,418.73 254.67,422.18"/>
    </edge>
    <edge id=":9884143845_0" function="internal">
        <lane id=":9884143845_0_0" index="0" disallow="tram rail_urban rail rail_electric rail_fast ship container cable_car subway aircraft wheelchair scooter drone" speed="10.13" length="3.80" shape="263.10,411.52 262.63,410.50 262.23,409.83 261.69,409.27 260.83,408.55"/>
    </edge>
    <edge id=":9884143845_1" function="internal">
        <lane id=":9884143845_1_0" index="0" disallow="tram rail_urban rail rail_electric rail_fast ship container cable_car subway aircraft wheelchair scooter drone" speed="4.69" length="2.03" shape="263.10,411.52 262.69,409.92 262.88,409.59"/>
    </edge>
    <edge id=":9884143845_4" function="internal">
        <lane id=":9884143845_4_0" index="0" disallow="tram rail_urban rail rail_electric rail_fast ship container cable_car subway aircraft wheelchair scooter drone" speed="4.69" length="4.51" shape="262.88,409.59 263.20,409.04 264.64,408.89 267.00,409.45"/>
    </edge>
    <edge id=":9884143845_2" function="internal">
        <lane id=":9884143845_2_0" index="0" disallow="tram rail_urban rail rail_electric rail_fast ship container cable_car subway aircraft wheelchair scooter drone" speed="8.33" length="5.46" shape="262.83,406.05 264.01,407.18 264.75,408.07 265.57,408.81 267.00,409.45"/>
    </edge>
    <edge id=":9884143845_3" function="internal">
        <lane id=":9884143845_3_0" index="0" disallow="tram rail_urban rail rail_electric rail_fast ship container cable_car subway aircraft wheelchair scooter drone" speed="3.65" length="1.44" shape="262.83,406.05 263.27,407.43"/>
    </edge>
    <edge id=":9884143845_5" function="internal">
        <lane id=":9884143845_5_0" index="0" disallow="tram rail_urban rail rail_electric rail_fast ship container cable_car subway aircraft wheelchair scooter drone" speed="3.65" length="3.23" shape="263.27,407.43 263.08,408.30 262.27,408.68 260.83,408.55"/>
    </edge>
    <edge id=":9884143846_0" function="internal">
        <lane id=":9884143846_0_0" index="0" disallow="tram rail_urban rail rail_electric rail_fast ship container cable_car subway aircraft wheelchair scooter drone" speed="8.93" length="4.52" shape="283.24,413.05 282.72,414.27 282.51,415.17 282.54,416.10 282.73,417.42"/>
    </edge>
    <edge id=":9884143846_1" function="internal">
        <lane id=":9884143846_1_0" index="0" disallow="tram rail_urban rail rail_electric rail_fast ship container cable_car subway aircraft wheelchair scooter drone" speed="27.78" length="4.80" shape="280.87,413.04 281.52,414.31 282.03,415.17 282.43,416.05 282.73,417.42"/>
    </edge>
    <edge id=":9884143886_0" function="internal">
        <lane id=":9884143886_0_0" index="0" disallow="tram rail_urban rail rail_electric rail_fast ship container cable_car subway aircraft wheelchair scooter drone" speed="27.78" length="6.97" shape="268.96,427.68 267.20,426.73 265.80,426.51 264.32,426.46 262.29,426.05"/>
    </edge>
    <edge id=":9884143886_1" function="internal">
        <lane id=":9884143886_1_0" index="0" disallow="tram rail_urban rail rail_electric rail_fast ship container cable_car subway aircraft wheelchair scooter drone" speed="8.85" length="6.35" shape="268.96,427.68 267.36,426.65 266.21,425.89 265.41,424.90 264.83,423.19"/>
    </edge>
    <edge id=":9884143892_0" function="internal">
        <lane id=":9884143892_0_0" index="0" disallow="tram rail_urban rail rail_electric rail_fast ship container cable_car subway aircraft wheelchair scooter drone" speed="21.93" length="5.23" shape="264.79,423.00 264.44,421.49 264.25,420.43 264.21,419.37 264.33,417.83"/>
    </edge>
    <edge id=":9884143892_1" function="internal">
        <lane id=":9884143892_1_0" index="0" disallow="tram rail_urban rail rail_electric rail_fast ship container cable_car subway aircraft wheelchair scooter drone" speed="7.34" length="5.41" shape="261.10,421.99 262.43,420.95 263.41,419.92 264.05,418.88 264.33,417.83"/>
    </edge>
    <edge id=":9884143896_0" function="internal">
        <lane id=":9884143896_0_0" index="0" disallow="tram rail_urban rail rail_electric rail_fast ship container cable_car subway aircraft wheelchair scooter drone" speed="10.99" length="5.16" shape="267.19,409.52 268.64,410.02 269.67,410.33 270.71,410.39 272.20,410.19"/>
    </edge>
    <edge id=":9884143896_1" function="internal">
        <lane id=":9884143896_1_0" index="0" disallow="tram rail_urban rail rail_electric rail_fast ship container cable_car subway aircraft wheelchair scooter drone" speed="23.79" length="5.61" shape="267.08,412.34 268.52,411.51 269.53,410.95 270.59,410.55 272.20,410.19"/>
    </edge>
    <edge id=":9884143899_0" function="internal">
        <lane id=":9884143899_0_0" index="0" disallow="tram rail_urban rail rail_electric rail_fast ship container cable_car subway aircraft wheelchair scooter drone" speed="6.69" length="4.56" shape="282.76,417.62 283.05,418.84 283.54,419.87 284.21,420.72 285.07,421.38"/>
    </edge>
    <edge id=":9884143899_1" function="internal">
        <lane id=":9884143899_1_0" index="0" disallow="tram rail_urban rail rail_electric rail_fast ship container cable_car subway aircraft wheelchair scooter drone" speed="7.70" length="4.97" shape="282.76,417.62 283.11,419.08 283.42,420.14 283.41,421.13 282.79,422.36"/>
    </edge>
    <edge id=":9884143901_0" function="internal">
        <lane id=":9884143901_0_0" index="0" disallow="tram rail_urban rail rail_electric rail_fast ship container cable_car subway aircraft wheelchair scooter drone" speed="27.78" length="6.08" shape="284.36,424.65 282.63,425.17 281.43,425.53 280.31,426.05 278.82,427.03"/>
    </edge>
    <edge id=":9884143901_1" function="internal">
        <lane id=":9884143901_1_0" index="0" disallow="tram rail_urban rail rail_electric rail_fast ship container cable_car subway aircraft wheelchair scooter drone" speed="20.55" length="5.99" shape="282.68,422.52 281.70,424.01 281.02,425.04 280.20,425.94 278.82,427.03"/>
    </edge>
    <edge id=":9884143904_0" function="internal">
        <lane id=":9884143904_0_0" index="0" disallow="tram rail_urban rail rail_electric rail_fast ship container cable_car subway aircraft wheelchair scooter drone" speed="11.53" length="6.17" shape="264.35,417.63 264.48,415.83 264.35,414.57 263.93,413.37 263.19,411.70"/>
    </edge>
    <edge id=":9884143904_1" function="internal">
        <lane id=":9884143904_1_0" index="0" disallow="tram rail_urban rail rail_electric rail_fast ship container cable_car subway aircraft wheelchair scooter drone" speed="7.18" length="6.00" shape="264.35,417.63 264.67,415.80 265.20,414.32 265.94,413.20 266.90,412.44"/>
    </edge>
    <edge id=":9884143905_0" function="internal">
        <lane id=":9884143905_0_0" index="0" disallow="tram rail_urban rail rail_electric rail_fast ship container cable_car subway aircraft wheelchair scooter drone" speed="12.92" length="2.43" shape="285.08,411.25 284.52,411.70 284.08,411.97 283.70,412.28 283.33,412.87"/>
    </edge>
    <edge id=":9884143905_1" function="internal">
        <lane id=":9884143905_1_0" index="0" disallow="tram rail_urban rail rail_electric rail_fast ship container cable_car subway aircraft wheelchair scooter drone" speed="3.65" length="1.44" shape="285.08,411.25 283.67,411.53"/>
    </edge>
    <edge id=":9884143905_4" function="internal">
        <lane id=":9884143905_4_0" index="0" disallow="tram rail_urban rail rail_electric rail_fast ship container cable_car subway aircraft wheelchair scooter drone" speed="3.65" length="3.23" shape="283.67,411.53 282.82,411.24 282.54,410.40 282.82,408.98"/>
    </edge>
    <edge id=":9884143905_2" function="internal">
        <lane id=":9884143905_2_0" index="0" disallow="tram rail_urban rail rail_electric rail_fast ship container cable_car subway aircraft wheelchair scooter drone" speed="13.89" length="2.07" shape="281.36,410.42 281.87,410.10 282.16,409.79 282.41,409.44 282.82,408.98"/>
    </edge>
    <edge id=":9884143905_3" function="internal">
        <lane id=":9884143905_3_0" index="0" disallow="tram rail_urban rail rail_electric rail_fast ship container cable_car subway aircraft wheelchair scooter drone" speed="4.32" length="1.61" shape="281.36,410.42 282.86,409.82"/>
    </edge>
    <edge id=":9884143905_5" function="internal">
        <lane id=":9884143905_5_0" index="0" disallow="tram rail_urban rail rail_electric rail_fast ship container cable_car subway aircraft wheelchair scooter drone" speed="4.32" length="4.19" shape="282.86,409.82 283.05,409.74 283.94,409.93 284.03,410.97 283.33,412.87"/>
    </edge>
    <edge id=":9884143906_0" function="internal">
        <lane id=":9884143906_0_0" index="0" disallow="tram rail_urban rail rail_electric rail_fast ship container cable_car subway aircraft wheelchair scooter drone" speed="9.36" length="5.47" shape="275.91,410.34 277.51,410.69 278.65,411.02 279.75,411.06 281.19,410.52"/>
    </edge>
    <edge id=":9884143906_1" function="internal">
        <lane id=":9884143906_1_0" index="0" disallow="tram rail_urban rail rail_electric rail_fast ship container cable_car subway aircraft wheelchair scooter drone" speed="6.80" length="5.71" shape="275.91,410.34 277.71,410.70 279.12,411.24 280.15,411.96 280.79,412.86"/>
    </edge>
    <edge id=":9884143907_0" function="internal">
        <lane id=":9884143907_0_0" index="0" allow="pedestrian delivery bicycle" speed="5.56" length="5.23" shape="273.67,431.65 272.98,433.05 272.52,434.02 272.20,435.03 271.92,436.54"/>
    </edge>
    <edge id=":9884143907_1" function="internal">
        <lane id=":9884143907_1_0" index="0" allow="pedestrian delivery bicycle" speed="5.00" length="8.35" shape="273.67,431.65 272.60,433.15 271.59,433.03 270.61,431.29 269.68,427.92"/>
    </edge>
    <edge id=":9884143907_2" function="internal">
        <lane id=":9884143907_2_0" index="0" allow="pedestrian delivery bicycle" speed="5.56" length="8.32" shape="268.76,436.08 269.28,433.65 269.77,431.98 269.99,430.32 269.68,427.92"/>
    </edge>
    <edge id=":9884143907_3" function="internal">
        <lane id=":9884143907_3_0" index="0" allow="pedestrian delivery bicycle" speed="3.65" length="4.67" shape="268.76,436.08 269.72,435.01 270.57,434.73 271.31,435.24 271.92,436.54"/>
    </edge>
    <edge id=":9884143908_0" function="internal">
        <lane id=":9884143908_0_0" index="0" allow="pedestrian delivery bicycle" speed="11.56" length="5.86" shape="277.99,427.62 276.52,428.56 275.45,429.20 274.60,430.01 273.75,431.47"/>
    </edge>
    <edge id=":9884143908_1" function="internal">
        <lane id=":9884143908_1_0" index="0" disallow="tram rail_urban rail rail_electric rail_fast ship container cable_car subway aircraft wheelchair scooter drone" speed="7.96" length="5.83" shape="277.99,427.62 276.74,428.33 275.40,428.76 273.97,428.90 272.44,428.75"/>
    </edge>
    <edge id=":9884143910_0" function="internal">
        <lane id=":9884143910_0_0" index="0" allow="pedestrian delivery bicycle" speed="16.67" length="0.52" shape="269.64,427.72 269.12,427.79"/>
    </edge>
    <edge id=":9884143910_1" function="internal">
        <lane id=":9884143910_1_0" index="0" disallow="tram rail_urban rail rail_electric rail_fast ship container cable_car subway aircraft wheelchair scooter drone" speed="10.47" length="3.30" shape="272.24,428.71 271.26,428.57 270.58,428.49 269.94,428.29 269.12,427.79"/>
    </edge>

    <edge id="-1035451049" from="9884143905" to="9236284852" priority="3" type="highway.residential" shape="286.23,407.84 289.31,404.76 311.90,381.00 314.20,377.92 315.25,374.52 315.76,370.23 315.67,362.02 315.78,315.92 315.85,311.90 315.06,308.21 313.22,305.42 310.61,302.52 306.29,300.97 295.64,299.64 289.54,298.88 284.32,297.54 280.60,295.13 277.42,291.40 272.47,284.49 267.69,277.81 250.02,254.90 236.47,236.92 234.19,233.37 232.85,228.85 232.75,223.55 233.73,218.72 235.19,214.54 238.65,210.51 242.75,207.80 248.39,205.55 320.40,196.94 341.88,193.79 398.81,185.36 411.87,182.41 431.23,175.73 451.09,165.63 470.34,150.74 487.71,132.86 497.52,117.13 505.09,98.79 509.74,81.52 511.82,59.76 511.12,45.64 508.62,31.39 504.33,17.17 496.32,0.00">
        <lane id="-1035451049_0" index="0" disallow="tram rail_urban rail rail_electric rail_fast ship container cable_car subway aircraft wheelchair scooter drone" speed="13.89" length="661.44" shape="282.82,408.98 288.16,403.64 310.67,379.97 312.75,377.18 313.68,374.19 314.16,370.15 314.07,362.02 314.18,315.91 314.25,312.06 313.56,308.84 311.95,306.40 309.69,303.89 305.92,302.53 295.44,301.23 289.24,300.45 283.67,299.03 279.53,296.35 276.16,292.39 271.17,285.42 266.41,278.77 248.75,255.87 235.16,237.83 232.72,234.04 231.25,229.09 231.14,223.41 232.19,218.29 233.78,213.73 237.58,209.30 242.00,206.37 247.99,203.99 320.19,195.35 341.64,192.21 398.52,183.79 411.43,180.87 430.60,174.25 450.23,164.27 469.27,149.54 486.45,131.87 496.10,116.40 503.57,98.28 508.16,81.23 510.22,59.72 509.53,45.82 507.06,31.77 502.83,17.74 494.87,0.68"/>
    </edge>
    <edge id="-1112324167" from="8838548538" to="8210227537" priority="1" type="highway.service" shape="253.21,438.61 259.30,440.14 264.44,441.68 269.29,443.48">