<?xml version="1.0" encoding="UTF-8"?>

<!-- generated on 2024-09-03 01:38:08 by Eclipse SUMO netconvert Version 1.20.0
<configuration xmlns:xsi="http://www.w3.org/2001/XMLSchema-instance" xsi:noNamespaceSchemaLocation="http://sumo.dlr.de/xsd/netconvertConfiguration.xsd">

    <input>
        <osm-files value="train_files/intersection/middle/osm_files/map(47).osm"/>
    </input>

    <output>
        <output-file value="train_files/intersection/middle/outputs/map(47)_dict/map(47)/map(47).net.xml"/>
    </output>

    <projection>
        <proj.utm value="true"/>
    </projection>

    <building_defaults>
        <default.junctions.keep-clear value="false"/>
    </building_defaults>

</configuration>
-->

<net version="1.20" junctionCornerDetail="5" limitTurnSpeed="5.50" xmlns:xsi="http://www.w3.org/2001/XMLSchema-instance" xsi:noNamespaceSchemaLocation="http://sumo.dlr.de/xsd/net_file.xsd">

    <location netOffset="-483423.63,-5416528.54" convBoundary="0.00,0.00,445.05,776.75" origBoundary="2.773812,48.901480,2.779857,48.908479" projParameter="+proj=utm +zone=31 +ellps=WGS84 +datum=WGS84 +units=m +no_defs"/>

    <type id="highway.secondary" priority="11" numLanes="1" speed="27.78" disallow="tram rail_urban rail rail_electric rail_fast ship container cable_car subway aircraft wheelchair scooter drone" oneway="0"/>
    <type id="highway.tertiary" priority="10" numLanes="1" speed="22.22" disallow="tram rail_urban rail rail_electric rail_fast ship container cable_car subway aircraft wheelchair scooter drone" oneway="0"/>

    <edge id=":288774240_0" function="internal">
        <lane id=":288774240_0_0" index="0" disallow="tram rail_urban rail rail_electric rail_fast ship container cable_car subway aircraft wheelchair scooter drone" speed="3.65" length="4.67" shape="375.41,142.37 376.73,141.81 377.62,141.91 378.07,142.68 378.08,144.13"/>
    </edge>
    <edge id=":321673865_0" function="internal">
        <lane id=":321673865_0_0" index="0" disallow="tram rail_urban rail rail_electric rail_fast ship container cable_car subway aircraft wheelchair scooter drone" speed="3.65" length="4.67" shape="12.94,-0.43 14.03,-1.37 14.91,-1.54 15.57,-0.94 16.02,0.43"/>
    </edge>
    <edge id=":321673959_0" function="internal">
        <lane id=":321673959_0_0" index="0" disallow="tram rail_urban rail rail_electric rail_fast ship container cable_car subway aircraft wheelchair scooter drone" speed="21.50" length="5.91" shape="310.78,183.84 309.44,182.70 308.51,181.92 307.49,181.29 305.89,180.62"/>
    </edge>
    <edge id=":321673959_1" function="internal">
        <lane id=":321673959_1_0" index="0" disallow="tram rail_urban rail rail_electric rail_fast ship container cable_car subway aircraft wheelchair scooter drone" speed="5.85" length="5.01" shape="310.78,183.84 309.69,182.38 310.92,181.60 312.65,181.56"/>
    </edge>
    <edge id=":321673959_4" function="internal">
        <lane id=":321673959_4_0" index="0" disallow="tram rail_urban rail rail_electric rail_fast ship container cable_car subway aircraft wheelchair scooter drone" speed="5.85" length="7.66" shape="312.65,181.56 314.45,181.51 320.28,182.11"/>
    </edge>
    <edge id=":321673959_2" function="internal">
        <lane id=":321673959_2_0" index="0" disallow="tram rail_urban rail rail_electric rail_fast ship container cable_car subway aircraft wheelchair scooter drone" speed="22.22" length="14.08" shape="306.98,177.62 310.34,178.94 313.53,180.25 316.77,181.37 320.28,182.11"/>
    </edge>
    <edge id=":321673959_3" function="internal">
        <lane id=":321673959_3_0" index="0" disallow="tram rail_urban rail rail_electric rail_fast ship container cable_car subway aircraft wheelchair scooter drone" speed="3.65" length="1.44" shape="306.98,177.62 307.83,178.78"/>
    </edge>
    <edge id=":321673959_5" function="internal">
        <lane id=":321673959_5_0" index="0" disallow="tram rail_urban rail rail_electric rail_fast ship container cable_car subway aircraft wheelchair scooter drone" speed="3.65" length="3.23" shape="307.83,178.78 307.94,179.67 307.29,180.28 305.89,180.62"/>
    </edge>
    <edge id=":321674004_0" function="internal">
        <lane id=":321674004_0_0" index="0" disallow="tram rail_urban rail rail_electric rail_fast ship container cable_car subway aircraft wheelchair scooter drone" speed="27.78" length="6.87" shape="340.78,203.88 339.79,205.67 339.08,206.88 338.43,208.11 337.61,209.98"/>
    </edge>
    <edge id=":321674004_1" function="internal">
        <lane id=":321674004_1_0" index="0" disallow="tram rail_urban rail rail_electric rail_fast ship container cable_car subway aircraft wheelchair scooter drone" speed="5.92" length="2.22" shape="340.78,203.88 339.43,205.47 339.29,205.50"/>
    </edge>
    <edge id=":321674004_2" function="internal">
        <lane id=":321674004_2_0" index="0" disallow="tram rail_urban rail rail_electric rail_fast ship container cable_car subway aircraft wheelchair scooter drone" speed="3.65" length="1.44" shape="340.78,203.88 339.51,204.57"/>
    </edge>
    <edge id=":321674004_6" function="internal">
        <lane id=":321674004_6_0" index="0" disallow="tram rail_urban rail rail_electric rail_fast ship container cable_car subway aircraft wheelchair scooter drone" speed="5.92" length="7.19" shape="339.29,205.50 337.73,205.75 335.70,204.72 333.33,202.37"/>
    </edge>
    <edge id=":321674004_7" function="internal">
        <lane id=":321674004_7_0" index="0" disallow="tram rail_urban rail rail_electric rail_fast ship container cable_car subway aircraft wheelchair scooter drone" speed="3.65" length="3.23" shape="339.51,204.57 338.62,204.56 338.10,203.83 337.95,202.39"/>
    </edge>
    <edge id=":321674004_3" function="internal">
        <lane id=":321674004_3_0" index="0" disallow="tram rail_urban rail rail_electric rail_fast ship container cable_car subway aircraft wheelchair scooter drone" speed="7.07" length="6.88" shape="334.65,208.76 335.07,207.14 334.98,205.54 334.41,203.95 333.33,202.37"/>
    </edge>
    <edge id=":321674004_4" function="internal">
        <lane id=":321674004_4_0" index="0" disallow="tram rail_urban rail rail_electric rail_fast ship container cable_car subway aircraft wheelchair scooter drone" speed="27.78" length="7.18" shape="334.65,208.76 335.50,206.81 336.18,205.52 336.92,204.26 337.95,202.39"/>
    </edge>
    <edge id=":321674004_5" function="internal">
        <lane id=":321674004_5_0" index="0" disallow="tram rail_urban rail rail_electric rail_fast ship container cable_car subway aircraft wheelchair scooter drone" speed="3.65" length="1.44" shape="334.65,208.76 335.84,207.96"/>
    </edge>
    <edge id=":321674004_8" function="internal">
        <lane id=":321674004_8_0" index="0" disallow="tram rail_urban rail rail_electric rail_fast ship container cable_car subway aircraft wheelchair scooter drone" speed="3.65" length="3.23" shape="335.84,207.96 336.73,207.89 337.32,208.56 337.61,209.98"/>
    </edge>
    <edge id=":321674043_0" function="internal">
        <lane id=":321674043_0_0" index="0" disallow="tram rail_urban rail rail_electric rail_fast ship container cable_car subway aircraft wheelchair scooter drone" speed="27.78" length="9.37" shape="351.76,184.01 350.22,186.33 349.21,187.95 348.29,189.61 346.99,192.08"/>
    </edge>
    <edge id=":321674043_1" function="internal">
        <lane id=":321674043_1_0" index="0" disallow="tram rail_urban rail rail_electric rail_fast ship container cable_car subway aircraft wheelchair scooter drone" speed="3.65" length="1.44" shape="351.76,184.01 350.43,184.56"/>
    </edge>
    <edge id=":321674043_6" function="internal">
        <lane id=":321674043_6_0" index="0" disallow="tram rail_urban rail rail_electric rail_fast ship container cable_car subway aircraft wheelchair scooter drone" speed="3.65" length="3.23" shape="350.43,184.56 349.54,184.45 349.10,183.67 349.11,182.23"/>
    </edge>
    <edge id=":321674043_2" function="internal">
        <lane id=":321674043_2_0" index="0" disallow="tram rail_urban rail rail_electric rail_fast ship container cable_car subway aircraft wheelchair scooter drone" speed="7.66" length="8.13" shape="341.74,184.61 344.21,184.68 346.27,184.31 347.90,183.49 349.11,182.23"/>
    </edge>
    <edge id=":321674043_3" function="internal">
        <lane id=":321674043_3_0" index="0" disallow="tram rail_urban rail rail_electric rail_fast ship container cable_car subway aircraft wheelchair scooter drone" speed="6.50" length="11.59" shape="341.74,184.61 345.33,185.43 347.40,186.95 347.95,189.16 346.99,192.08"/>
    </edge>
    <edge id=":321674043_4" function="internal">
        <lane id=":321674043_4_0" index="0" disallow="tram rail_urban rail rail_electric rail_fast ship container cable_car subway aircraft wheelchair scooter drone" speed="27.78" length="9.72" shape="344.16,190.58 345.51,188.03 346.47,186.31 347.51,184.63 349.11,182.23"/>
    </edge>
    <edge id=":321674043_5" function="internal">
        <lane id=":321674043_5_0" index="0" disallow="tram rail_urban rail rail_electric rail_fast ship container cable_car subway aircraft wheelchair scooter drone" speed="3.65" length="1.44" shape="344.16,190.58 345.43,189.90"/>
    </edge>
    <edge id=":321674043_7" function="internal">
        <lane id=":321674043_7_0" index="0" disallow="tram rail_urban rail rail_electric rail_fast ship container cable_car subway aircraft wheelchair scooter drone" speed="3.65" length="3.23" shape="345.43,189.90 346.32,189.91 346.84,190.64 346.99,192.08"/>
    </edge>
    <edge id=":649031887_0" function="internal">
        <lane id=":649031887_0_0" index="0" disallow="tram rail_urban rail rail_electric rail_fast ship container cable_car subway aircraft wheelchair scooter drone" speed="3.65" length="4.67" shape="446.43,775.93 446.36,777.37 445.88,778.13 444.98,778.19 443.68,777.58"/>
    </edge>

    <edge id="-179915591" from="321674004" to="649031887" priority="11" type="highway.secondary" shape="336.29,208.98 330.91,222.11 327.20,232.15 324.36,239.81 320.27,252.52 315.61,269.18 312.40,286.62 308.26,306.86 306.05,319.61 304.95,345.87 303.59,364.21 302.33,375.70 302.15,379.15 302.94,397.71 302.47,404.58 304.75,428.87 307.72,437.68 311.62,459.62 313.61,466.76 316.88,479.21 317.39,486.06 320.40,505.16 327.95,533.07 331.91,541.28 340.30,565.10 349.19,599.40 363.19,639.73 381.59,677.57 397.89,705.99 407.28,719.86 415.65,731.54 429.13,750.19 445.05,776.75">
        <lane id="-179915591_0" index="0" disallow="tram rail_urban rail rail_electric rail_fast ship container cable_car subway aircraft wheelchair scooter drone" speed="27.78" length="602.10" shape="337.61,209.98 332.40,222.69 328.70,232.70 325.87,240.34 321.80,252.98 317.17,269.54 313.97,286.92 309.83,307.16 307.65,319.78 306.55,345.96 305.18,364.36 303.93,375.83 303.75,379.15 304.54,397.73 304.07,404.56 306.32,428.54 309.28,437.28 313.18,459.27 315.15,466.35 318.47,478.94 318.98,485.88 321.97,504.83 329.46,532.50 333.39,540.67 341.83,564.63 350.72,598.94 364.67,639.11 383.00,676.82 399.25,705.14 408.60,718.94 416.95,730.60 430.47,749.30 446.43,775.93"/>
        <param key="ref" value="D 89"/>
    </edge>
    <edge id="-29248349" from="321673865" to="321673959" priority="10" type="highway.tertiary" shape="14.48,0.00 3.02,40.94 0.60,59.23 0.00,70.32 0.79,83.74 2.27,93.51 3.82,102.56 7.85,114.99 12.85,126.55 17.86,135.89 23.04,144.57 29.91,152.97 37.59,161.04 44.76,166.92 52.28,172.94 61.73,179.28 72.97,184.77 85.60,188.73 100.17,192.22 113.69,193.79 129.87,193.52 144.15,191.79 159.86,188.80 176.79,184.69 207.38,175.55 230.35,170.04 250.38,168.22 265.04,168.49 276.39,170.42 287.84,172.38 303.74,178.14">
        <lane id="-29248349_0" index="0" disallow="tram rail_urban rail rail_electric rail_fast ship container cable_car subway aircraft wheelchair scooter drone" speed="22.22" length="452.37" shape="16.02,0.43 4.59,41.26 2.20,59.37 1.60,70.32 2.39,83.57 3.85,93.26 5.38,102.17 9.35,114.42 14.29,125.86 19.25,135.10 24.36,143.64 31.11,151.91 38.68,159.87 45.76,165.68 53.23,171.65 62.53,177.89 73.57,183.28 86.02,187.19 100.45,190.64 113.77,192.19 129.76,191.92 143.90,190.20 159.52,187.24 176.37,183.14 206.96,174.00 230.09,168.46 250.32,166.62 265.19,166.89 276.66,168.84 288.26,170.82 306.98,177.62"/>
        <param key="ref" value="D 89"/>
    </edge>
    <edge id="-50897434" from="288774240" to="321674043" priority="11" type="highway.secondary" shape="376.74,143.25 355.06,176.25 347.99,186.75">
        <lane id="-50897434_0" index="0" disallow="tram rail_urban rail rail_electric rail_fast ship container cable_car subway aircraft wheelchair scooter drone" speed="27.78" length="47.79" shape="378.08,144.13 356.39,177.14 351.76,184.01"/>
        <param key="ref" value="D 45a"/>
    </edge>
    <edge id="-544705616" from="321674043" to="321674004" priority="11" type="highway.secondary">
        <lane id="-544705616_0" index="0" disallow="tram rail_urban rail rail_electric rail_fast ship container cable_car subway aircraft wheelchair scooter drone" speed="27.78" length="13.35" shape="346.99,192.08 340.78,203.88"/>
        <param key="ref" value="D 89"/>
    </edge>
    <edge id="179915591" from="649031887" to="321674004" priority="11" type="highway.secondary" shape="445.05,776.75 429.13,750.19 415.65,731.54 407.28,719.86 397.89,705.99 381.59,677.57 363.19,639.73 349.19,599.40 340.30,565.10 331.91,541.28 327.95,533.07 320.40,505.16 317.39,486.06 316.88,479.21 313.61,466.76 311.62,459.62 307.72,437.68 304.75,428.87 302.47,404.58 302.94,397.71 302.15,379.15 302.33,375.70 303.59,364.21 304.95,345.87 306.05,319.61 308.26,306.86 312.40,286.62 315.61,269.18 320.27,252.52 324.36,239.81 327.20,232.15 330.91,222.11 336.29,208.98">
        <lane id="179915591_0" index="0" disallow="tram rail_urban rail rail_electric rail_fast ship container cable_car subway aircraft wheelchair scooter drone" speed="27.78" length="605.08" shape="443.68,777.58 427.80,751.07 414.35,732.47 405.97,720.77 396.53,706.84 380.17,678.32 361.71,640.34 347.66,599.87 338.76,565.57 330.43,541.90 326.44,533.63 318.83,505.50 315.80,486.25 315.30,479.47 312.06,467.18 310.06,459.98 306.17,438.08 303.17,429.21 300.86,404.60 301.34,397.69 300.54,379.14 300.74,375.57 302.00,364.07 303.35,345.77 304.46,319.43 306.69,306.56 310.83,286.31 314.05,268.81 318.74,252.06 322.85,239.29 325.70,231.59 329.42,221.53 334.65,208.76"/>
        <param key="ref" value="D 89"/>
    </edge>
    <edge id="29248325" from="321674004" to="321673959" priority="10" type="highway.tertiary" spreadType="center" shape="336.29,208.98 334.27,203.49 329.94,198.38 324.40,193.87 317.10,188.97 303.74,178.14">
        <lane id="29248325_0" index="0" disallow="tram rail_urban rail rail_electric rail_fast ship container cable_car subway aircraft wheelchair scooter drone" speed="22.22" length="29.32" shape="333.33,202.37 329.94,198.38 324.40,193.87 317.10,188.97 310.78,183.84"/>
        <param key="ref" value="D 89"/>
    </edge>
    <edge id="29248349" from="321673959" to="321673865" priority="10" type="highway.tertiary" shape="303.74,178.14 287.84,172.38 276.39,170.42 265.04,168.49 250.38,168.22 230.35,170.04 207.38,175.55 176.79,184.69 159.86,188.80 144.15,191.79 129.87,193.52 113.69,193.79 100.17,192.22 85.60,188.73 72.97,184.77 61.73,179.28 52.28,172.94 44.76,166.92 37.59,161.04 29.91,152.97 23.04,144.57 17.86,135.89 12.85,126.55 7.85,114.99 3.82,102.56 2.27,93.51 0.79,83.74 0.00,70.32 0.60,59.23 3.02,40.94 14.48,0.00">
        <lane id="29248349_0" index="0" disallow="tram rail_urban rail rail_electric rail_fast ship container cable_car subway aircraft wheelchair scooter drone" speed="22.22" length="457.16" shape="305.89,180.62 287.43,173.93 276.12,172.00 264.89,170.08 250.43,169.82 230.61,171.63 207.80,177.09 177.21,186.23 160.20,190.37 144.39,193.37 129.98,195.12 113.61,195.39 99.89,193.79 85.17,190.28 72.38,186.26 60.93,180.67 51.33,174.23 43.75,168.17 36.50,162.22 28.71,154.03 21.73,145.49 16.46,136.68 11.41,127.25 6.35,115.55 2.26,102.94 0.70,93.77 -0.80,83.90 -1.60,70.32 -0.99,59.08 1.45,40.62 12.94,-0.43"/>
        <param key="ref" value="D 89"/>
    </edge>
    <edge id="29248351" from="321673959" to="321674043" priority="10" type="highway.tertiary" spreadType="center" shape="303.74,178.14 316.64,181.62 326.78,182.99 343.54,184.81 347.99,186.75">
        <lane id="29248351_0" index="0" disallow="tram rail_urban rail rail_electric rail_fast ship container cable_car subway aircraft wheelchair scooter drone" speed="22.22" length="21.61" shape="320.28,182.11 326.78,182.99 341.74,184.61"/>
        <param key="ref" value="D 89"/>
    </edge>
    <edge id="50897434" from="321674043" to="288774240" priority="11" type="highway.secondary" shape="347.99,186.75 355.06,176.25 376.74,143.25">
        <lane id="50897434_0" index="0" disallow="tram rail_urban rail rail_electric rail_fast ship container cable_car subway aircraft wheelchair scooter drone" speed="27.78" length="47.75" shape="349.11,182.23 353.73,175.36 375.41,142.37"/>
        <param key="ref" value="D 45a"/>
    </edge>
    <edge id="544705616" from="321674004" to="321674043" priority="11" type="highway.secondary">
        <lane id="544705616_0" index="0" disallow="tram rail_urban rail rail_electric rail_fast ship container cable_car subway aircraft wheelchair scooter drone" speed="27.78" length="13.35" shape="337.95,202.39 344.16,190.58"/>
        <param key="ref" value="D 89"/>
    </edge>

    <junction id="288774240" type="priority" x="376.74" y="143.25" incLanes="50897434_0" intLanes=":288774240_0_0" shape="376.74,143.25 374.07,141.49 376.74,143.25">
        <request index="0" response="0" foes="0" cont="0"/>
    </junction>
    <junction id="321673865" type="priority" x="14.48" y="0.00" incLanes="29248349_0" intLanes=":321673865_0_0" shape="14.48,0.00 11.40,-0.86 14.48,-0.00">
        <request index="0" response="0" foes="0" cont="0"/>
    </junction>
    <junction id="321673959" type="priority" x="303.74" y="178.14" incLanes="29248325_0 -29248349_0" intLanes=":321673959_0_0 :321673959_4_0 :321673959_2_0 :321673959_5_0" shape="309.77,185.08 311.78,182.60 313.31,182.57 315.16,182.85 317.15,183.19 318.86,183.50 319.86,183.67 320.70,180.55 317.78,180.07 315.67,179.51 313.98,178.87 312.31,178.11 310.29,177.20 307.52,176.11 305.34,182.13 307.14,182.93 307.72,183.32 308.26,183.77 308.90,184.35">
        <request index="0" response="0000" foes="1000" cont="0"/>
        <request index="1" response="0100" foes="0100" cont="1"/>
        <request index="2" response="0000" foes="0010" cont="0"/>
        <request index="3" response="0001" foes="0001" cont="1"/>
    </junction>
    <junction id="321674004" type="priority" x="336.29" y="208.98" incLanes="-544705616_0 179915591_0" intLanes=":321674004_0_0 :321674004_6_0 :321674004_7_0 :321674004_3_0 :321674004_4_0 :321674004_8_0" shape="342.19,204.63 336.53,201.65 336.06,202.22 335.80,202.31 335.52,202.26 335.23,202.08 334.92,201.77 331.74,202.98 332.96,204.81 333.29,205.68 333.44,206.53 333.40,207.36 333.17,208.16 339.09,210.58 340.11,208.32 340.53,207.55 340.98,206.80 341.51,205.89">
        <request index="0" response="000000" foes="100000" cont="0"/>
        <request index="1" response="011000" foes="011000" cont="1"/>
        <request index="2" response="010000" foes="010000" cont="1"/>
        <request index="3" response="000000" foes="000010" cont="0"/>
        <request index="4" response="000000" foes="000110" cont="0"/>
        <request index="5" response="000001" foes="000001" cont="1"/>
    </junction>
    <junction id="321674043" type="priority" x="347.99" y="186.75" incLanes="-50897434_0 29248351_0 544705616_0" intLanes=":321674043_0_0 :321674043_6_0 :321674043_2_0 :321674043_3_0 :321674043_4_0 :321674043_7_0" shape="353.09,184.91 347.78,181.33 346.53,182.49 345.70,182.85 344.74,183.07 343.64,183.15 342.40,183.08 341.08,186.15 342.78,186.73 343.20,187.26 343.34,187.96 343.19,188.82 342.75,189.84 348.41,192.82 350.00,189.81 350.59,188.77 351.21,187.75 352.00,186.53">
        <request index="0" response="000000" foes="101000" cont="0"/>
        <request index="1" response="010100" foes="010100" cont="1"/>
        <request index="2" response="010000" foes="010010" cont="0"/>
        <request index="3" response="010001" foes="110001" cont="0"/>
        <request index="4" response="000000" foes="001110" cont="0"/>
        <request index="5" response="001001" foes="001001" cont="1"/>
    </junction>
    <junction id="649031887" type="priority" x="445.05" y="776.75" incLanes="-179915591_0" intLanes=":649031887_0_0" shape="445.05,776.75 447.80,775.11 445.05,776.75">
        <request index="0" response="0" foes="0" cont="0"/>
    </junction>

    <junction id=":321673959_4_0" type="internal" x="312.65" y="181.56" incLanes=":321673959_1_0 -29248349_0" intLanes=":321673959_2_0"/>
    <junction id=":321673959_5_0" type="internal" x="307.83" y="178.78" incLanes=":321673959_3_0 29248325_0" intLanes=":321673959_0_0"/>
    <junction id=":321674004_6_0" type="internal" x="339.29" y="205.50" incLanes=":321674004_1_0 179915591_0" intLanes=":321674004_3_0 :321674004_4_0"/>
    <junction id=":321674004_7_0" type="internal" x="339.51" y="204.57" incLanes=":321674004_2_0 179915591_0" intLanes=":321674004_4_0"/>
    <junction id=":321674004_8_0" type="internal" x="335.84" y="207.96" incLanes=":321674004_5_0 -544705616_0" intLanes=":321674004_0_0"/>
    <junction id=":321674043_6_0" type="internal" x="350.43" y="184.56" incLanes=":321674043_1_0 29248351_0 544705616_0" intLanes=":321674043_2_0 :321674043_4_0"/>
    <junction id=":321674043_7_0" type="internal" x="345.43" y="189.90" incLanes=":321674043_5_0 -50897434_0 29248351_0" intLanes=":321674043_0_0 :321674043_3_0"/>

    <connection from="-179915591" to="179915591" fromLane="0" toLane="0" via=":649031887_0_0" dir="t" state="M"/>
    <connection from="-29248349" to="29248351" fromLane="0" toLane="0" keepClear="0" via=":321673959_2_0" dir="s" state="M"/>
    <connection from="-29248349" to="29248349" fromLane="0" toLane="0" keepClear="0" via=":321673959_3_0" dir="t" state="m"/>
    <connection from="-50897434" to="-544705616" fromLane="0" toLane="0" keepClear="0" via=":321674043_0_0" dir="s" state="M"/>
    <connection from="-50897434" to="50897434" fromLane="0" toLane="0" keepClear="0" via=":321674043_1_0" dir="t" state="m"/>
    <connection from="-544705616" to="-179915591" fromLane="0" toLane="0" keepClear="0" via=":321674004_0_0" dir="s" state="M"/>
    <connection from="-544705616" to="29248325" fromLane="0" toLane="0" keepClear="0" via=":321674004_1_0" dir="l" state="m"/>
    <connection from="-544705616" to="544705616" fromLane="0" toLane="0" keepClear="0" via=":321674004_2_0" dir="t" state="m"/>
    <connection from="179915591" to="29248325" fromLane="0" toLane="0" keepClear="0" via=":321674004_3_0" dir="R" state="M"/>
    <connection from="179915591" to="544705616" fromLane="0" toLane="0" keepClear="0" via=":321674004_4_0" dir="s" state="M"/>
    <connection from="179915591" to="-179915591" fromLane="0" toLane="0" keepClear="0" via=":321674004_5_0" dir="t" state="m"/>
    <connection from="29248325" to="29248349" fromLane="0" toLane="0" keepClear="0" via=":321673959_0_0" dir="s" state="M"/>
    <connection from="29248325" to="29248351" fromLane="0" toLane="0" keepClear="0" via=":321673959_1_0" dir="l" state="m"/>
    <connection from="29248349" to="-29248349" fromLane="0" toLane="0" via=":321673865_0_0" dir="t" state="M"/>
    <connection from="29248351" to="50897434" fromLane="0" toLane="0" keepClear="0" via=":321674043_2_0" dir="r" state="m"/>
    <connection from="29248351" to="-544705616" fromLane="0" toLane="0" keepClear="0" via=":321674043_3_0" dir="l" state="m"/>
    <connection from="50897434" to="-50897434" fromLane="0" toLane="0" via=":288774240_0_0" dir="t" state="M"/>
    <connection from="544705616" to="50897434" fromLane="0" toLane="0" keepClear="0" via=":321674043_4_0" dir="s" state="M"/>
    <connection from="544705616" to="-544705616" fromLane="0" toLane="0" keepClear="0" via=":321674043_5_0" dir="t" state="m"/>

    <connection from=":288774240_0" to="-50897434" fromLane="0" toLane="0" dir="t" state="M"/>
    <connection from=":321673865_0" to="-29248349" fromLane="0" toLane="0" dir="t" state="M"/>
    <connection from=":321673959_0" to="29248349" fromLane="0" toLane="0" dir="s" state="M"/>
    <connection from=":321673959_1" to="29248351" fromLane="0" toLane="0" via=":321673959_4_0" dir="l" state="m"/>
    <connection from=":321673959_4" to="29248351" fromLane="0" toLane="0" dir="l" state="M"/>
    <connection from=":321673959_2" to="29248351" fromLane="0" toLane="0" dir="s" state="M"/>
    <connection from=":321673959_3" to="29248349" fromLane="0" toLane="0" via=":321673959_5_0" dir="t" state="m"/>
    <connection from=":321673959_5" to="29248349" fromLane="0" toLane="0" dir="t" state="M"/>
    <connection from=":321674004_0" to="-179915591" fromLane="0" toLane="0" dir="s" state="M"/>
    <connection from=":321674004_1" to="29248325" fromLane="0" toLane="0" via=":321674004_6_0" dir="l" state="m"/>
    <connection from=":321674004_6" to="29248325" fromLane="0" toLane="0" dir="l" state="M"/>
    <connection from=":321674004_2" to="544705616" fromLane="0" toLane="0" via=":321674004_7_0" dir="t" state="m"/>
    <connection from=":321674004_7" to="544705616" fromLane="0" toLane="0" dir="t" state="M"/>
    <connection from=":321674004_3" to="29248325" fromLane="0" toLane="0" dir="R" state="M"/>
    <connection from=":321674004_4" to="544705616" fromLane="0" toLane="0" dir="s" state="M"/>
    <connection from=":321674004_5" to="-179915591" fromLane="0" toLane="0" via=":321674004_8_0" dir="t" state="m"/>
    <connection from=":321674004_8" to="-179915591" fromLane="0" toLane="0" dir="t" state="M"/>
    <connection from=":321674043_0" to="-544705616" fromLane="0" toLane="0" dir="s" state="M"/>
    <connection from=":321674043_1" to="50897434" fromLane="0" toLane="0" via=":321674043_6_0" dir="t" state="m"/>
    <connection from=":321674043_6" to="50897434" fromLane="0" toLane="0" dir="t" state="M"/>
    <connection from=":321674043_2" to="50897434" fromLane="0" toLane="0" dir="r" state="M"/>
    <connection from=":321674043_3" to="-544705616" fromLane="0" toLane="0" dir="l" state="M"/>
    <connection from=":321674043_4" to="50897434" fromLane="0" toLane="0" dir="s" state="M"/>
    <connection from=":321674043_5" to="-544705616" fromLane="0" toLane="0" via=":321674043_7_0" dir="t" state="m"/>
    <connection from=":321674043_7" to="-544705616" fromLane="0" toLane="0" dir="t" state="M"/>
    <connection from=":649031887_0" to="179915591" fromLane="0" toLane="0" dir="t" state="M"/>

</net>
