<?xml version="1.0" encoding="UTF-8"?>

<!-- generated on 2024-09-03 01:36:54 by Eclipse SUMO duarouter Version 1.20.0
<configuration xmlns:xsi="http://www.w3.org/2001/XMLSchema-instance" xsi:noNamespaceSchemaLocation="http://sumo.dlr.de/xsd/duarouterConfiguration.xsd">

    <input>
        <net-file value="train_files/roundabout/easy/outputs/map(36)_dict/map(36)/map(36).net.xml"/>
        <route-files value="train_files/roundabout/easy/outputs/map(36)_dict/map(36)/map(36).trips.xml"/>
    </input>

    <output>
        <output-file value="train_files/roundabout/easy/outputs/map(36)_dict/map(36)/map(36).rou.xml"/>
    </output>

    <report>
        <ignore-errors value="true"/>
    </report>

</configuration>
-->

<routes xmlns:xsi="http://www.w3.org/2001/XMLSchema-instance" xsi:noNamespaceSchemaLocation="http://sumo.dlr.de/xsd/routes_file.xsd">
    <vehicle id="1" depart="3.60">
        <route edges="1056276226#0 1056276226#1 744825974#4 744825974#5 744825974#6 -97637311#1 -97637311#0"/>
    </vehicle>
    <vehicle id="5" depart="18.00">
        <route edges="1056276226#0 1056276226#1 744825974#4 744825974#5 744825974#6 744825974#7 744825974#0 902979328#0 902979328#1"/>
    </vehicle>
    <vehicle id="7" depart="25.20">
        <route edges="744825961#0 744825961#1 744825974#2 744825974#3 744825974#4 744825974#5 744825974#6 744825974#7 744825974#0 902979328#0 902979328#1"/>
    </vehicle>
    <vehicle id="8" depart="28.80">
        <route edges="1056276226#0 1056276226#1 744825974#4 744825974#5 744825974#6 744825974#7 744825974#0 902979328#0 902979328#1"/>
    </vehicle>
    <vehicle id="9" depart="32.40">
        <route edges="744825964#0 744825964#1 744825973 -744825973 -744825964#1 -744825964#0"/>
    </vehicle>
    <vehicle id="13" depart="46.80">
        <route edges="-744825973 -744825964#1 -744825964#0"/>
    </vehicle>
    <vehicle id="14" depart="50.40">
        <route edges="97637311#0 97637311#1 744825974#7 744825974#0 902979328#0 902979328#1"/>
    </vehicle>
    <vehicle id="16" depart="57.60">
        <route edges="744825961#0 744825961#1 744825974#2 984589551#0 984589551#1 984589551#2"/>
    </vehicle>
    <vehicle id="17" depart="61.20">
        <route edges="624410090 744825974#6 744825974#7 744825974#0 902979328#0 902979328#1"/>
    </vehicle>
    <vehicle id="19" depart="68.40">
        <route edges="97637311#0 97637311#1 744825974#7 744825974#0 902979328#0 902979328#1"/>
    </vehicle>
    <vehicle id="20" depart="72.00">
        <route edges="744825964#0 744825964#1 744825973 -744825973 -744825964#1 -744825964#0"/>
    </vehicle>
    <vehicle id="21" depart="75.60">
        <route edges="1056276226#0 1056276226#1 744825974#4 744825974#5 744825974#6 -97637311#1 -97637311#0"/>
    </vehicle>
    <vehicle id="25" depart="90.00">
        <route edges="624410090 744825974#6 -97637311#1 -97637311#0"/>
    </vehicle>
    <vehicle id="26" depart="93.60">
        <route edges="1056276226#0 1056276226#1 744825974#4 744825974#5 744825974#6 744825974#7 744825974#0 744825974#1 744825974#2 984589551#0 984589551#1 984589551#2"/>
    </vehicle>
    <vehicle id="27" depart="97.20">
        <route edges="744825961#0 744825961#1 744825974#2 744825974#3 744825974#4 744825974#5 744825974#6 744825974#7 744825974#0 902979328#0 902979328#1"/>
    </vehicle>
    <vehicle id="28" depart="100.80">
        <route edges="1056276226#0 1056276226#1 744825974#4 946621531"/>
    </vehicle>
    <vehicle id="29" depart="104.40">
        <route edges="-744825973 -744825964#1 -744825964#0 744825964#0 744825964#1 744825973"/>
    </vehicle>
    <vehicle id="30" depart="108.00">
        <route edges="97637311#0 97637311#1 744825974#7 744825974#0 902979328#0 902979328#1"/>
    </vehicle>
    <vehicle id="31" depart="111.60">
        <route edges="744825961#0 744825961#1 744825974#2 744825974#3 744825974#4 946621531"/>
    </vehicle>
    <vehicle id="32" depart="115.20">
        <route edges="97637311#0 97637311#1 744825974#7 744825974#0 744825974#1 744825974#2 744825974#3 744825974#4 946621531"/>
    </vehicle>
    <vehicle id="34" depart="122.40">
        <route edges="1056276226#0 1056276226#1 744825974#4 744825974#5 744825974#6 -97637311#1 -97637311#0"/>
    </vehicle>
    <vehicle id="35" depart="126.00">
        <route edges="1056276226#0 1056276226#1 744825974#4 744825974#5 744825974#6 744825974#7 744825974#0 744825974#1 744825974#2 984589551#0 984589551#1 984589551#2"/>
    </vehicle>
    <vehicle id="36" depart="129.60">
        <route edges="97637311#0 97637311#1 744825974#7 744825974#0 744825974#1 744825974#2 744825974#3 744825974#4 744825974#5 744825974#6 -97637311#1 -97637311#0"/>
    </vehicle>
    <vehicle id="39" depart="140.40">
        <route edges="1056276226#0 1056276226#1 744825974#4 744825974#5 744825974#6 -97637311#1 -97637311#0"/>
    </vehicle>
    <vehicle id="40" depart="144.00">
        <route edges="744825961#0 744825961#1 744825974#2 744825974#3 744825974#4 744825974#5 744825974#6 -97637311#1 -97637311#0"/>
    </vehicle>
    <vehicle id="41" depart="147.60">
        <route edges="744825961#0 744825961#1 744825974#2 984589551#0 984589551#1 984589551#2"/>
    </vehicle>
    <vehicle id="42" depart="151.20">
        <route edges="624410090 744825974#6 -97637311#1 -97637311#0"/>
    </vehicle>
    <vehicle id="43" depart="154.80">
        <route edges="97637311#0 97637311#1 744825974#7 744825974#0 902979328#0 902979328#1"/>
    </vehicle>
    <vehicle id="44" depart="158.40">
        <route edges="-744825973 -744825964#1 -744825964#0"/>
    </vehicle>
    <vehicle id="46" depart="165.60">
        <route edges="744825964#0 744825964#1 744825973"/>
    </vehicle>
    <vehicle id="47" depart="169.20">
        <route edges="-744825973 -744825964#1 -744825964#0 744825964#0 744825964#1 744825973"/>
    </vehicle>
    <vehicle id="48" depart="172.80">
        <route edges="97637311#0 97637311#1 744825974#7 744825974#0 902979328#0 902979328#1"/>
    </vehicle>
    <vehicle id="49" depart="176.40">
        <route edges="97637311#0 97637311#1 744825974#7 744825974#0 744825974#1 744825974#2 984589551#0 984589551#1 984589551#2"/>
    </vehicle>
    <vehicle id="52" depart="187.20">
        <route edges="1056276226#0 1056276226#1 744825974#4 744825974#5 744825974#6 744825974#7 744825974#0 902979328#0 902979328#1"/>
    </vehicle>
    <vehicle id="53" depart="190.80">
        <route edges="-744825973 -744825964#1 -744825964#0 744825964#0 744825964#1 744825973"/>
    </vehicle>
    <vehicle id="54" depart="194.40">
        <route edges="624410090 744825974#6 744825974#7 744825974#0 744825974#1 744825974#2 984589551#0 984589551#1 984589551#2"/>
    </vehicle>
    <vehicle id="55" depart="198.00">
        <route edges="97637311#0 97637311#1 744825974#7 744825974#0 744825974#1 744825974#2 744825974#3 744825974#4 744825974#5 744825974#6 -97637311#1 -97637311#0"/>
    </vehicle>
    <vehicle id="56" depart="201.60">
        <route edges="744825961#0 744825961#1 744825974#2 744825974#3 744825974#4 744825974#5 744825974#6 -97637311#1 -97637311#0"/>
    </vehicle>
    <vehicle id="57" depart="205.20">
        <route edges="97637311#0 97637311#1 744825974#7 744825974#0 744825974#1 744825974#2 984589551#0 984589551#1 984589551#2"/>
    </vehicle>
    <vehicle id="58" depart="208.80">
        <route edges="1056276226#0 1056276226#1 744825974#4 744825974#5 744825974#6 744825974#7 744825974#0 902979328#0 902979328#1"/>
    </vehicle>
    <vehicle id="64" depart="230.40">
        <route edges="97637311#0 97637311#1 744825974#7 744825974#0 744825974#1 744825974#2 744825974#3 744825974#4 946621531"/>
    </vehicle>
    <vehicle id="66" depart="237.60">
        <route edges="97637311#0 97637311#1 744825974#7 744825974#0 744825974#1 744825974#2 984589551#0 984589551#1 984589551#2"/>
    </vehicle>
    <vehicle id="67" depart="241.20">
        <route edges="-744825973 -744825964#1 -744825964#0 744825964#0 744825964#1 744825973"/>
    </vehicle>
    <vehicle id="69" depart="248.40">
        <route edges="744825964#0 744825964#1 744825973 -744825973 -744825964#1 -744825964#0"/>
    </vehicle>
    <vehicle id="70" depart="252.00">
        <route edges="624410090 744825974#6 744825974#7 744825974#0 902979328#0 902979328#1"/>
    </vehicle>
    <vehicle id="71" depart="255.60">
        <route edges="1056276226#0 1056276226#1 744825974#4 744825974#5 744825974#6 744825974#7 744825974#0 744825974#1 744825974#2 984589551#0 984589551#1 984589551#2"/>
    </vehicle>
    <vehicle id="72" depart="259.20">
        <route edges="624410090 744825974#6 -97637311#1 -97637311#0"/>
    </vehicle>
    <vehicle id="73" depart="262.80">
        <route edges="744825961#0 744825961#1 744825974#2 744825974#3 744825974#4 946621531"/>
    </vehicle>
    <vehicle id="74" depart="266.40">
        <route edges="1056276226#0 1056276226#1 744825974#4 744825974#5 744825974#6 -97637311#1 -97637311#0"/>
    </vehicle>
    <vehicle id="75" depart="270.00">
        <route edges="97637311#0 97637311#1 744825974#7 744825974#0 902979328#0 902979328#1"/>
    </vehicle>
    <vehicle id="76" depart="273.60">
        <route edges="624410090 744825974#6 744825974#7 744825974#0 902979328#0 902979328#1"/>
    </vehicle>
    <vehicle id="78" depart="280.80">
        <route edges="624410090 744825974#6 744825974#7 744825974#0 902979328#0 902979328#1"/>
    </vehicle>
    <vehicle id="79" depart="284.40">
        <route edges="1056276226#0 1056276226#1 744825974#4 744825974#5 744825974#6 -97637311#1 -97637311#0"/>
    </vehicle>
    <vehicle id="81" depart="291.60">
        <route edges="1056276226#0 1056276226#1 744825974#4 744825974#5 744825974#6 744825974#7 744825974#0 744825974#1 744825974#2 984589551#0 984589551#1 984589551#2"/>
    </vehicle>
    <vehicle id="83" depart="298.80">
        <route edges="1056276226#0 1056276226#1 744825974#4 946621531"/>
    </vehicle>
    <vehicle id="85" depart="306.00">
        <route edges="97637311#0 97637311#1 744825974#7 744825974#0 902979328#0 902979328#1"/>
    </vehicle>
    <vehicle id="86" depart="309.60">
        <route edges="624410090 744825974#6 744825974#7 744825974#0 744825974#1 744825974#2 744825974#3 744825974#4 946621531"/>
    </vehicle>
    <vehicle id="88" depart="316.80">
        <route edges="-744825973 -744825964#1 -744825964#0 744825964#0 744825964#1 744825973"/>
    </vehicle>
    <vehicle id="93" depart="334.80">
        <route edges="97637311#0 97637311#1 744825974#7 744825974#0 744825974#1 744825974#2 744825974#3 744825974#4 744825974#5 744825974#6 -97637311#1 -97637311#0"/>
    </vehicle>
    <vehicle id="95" depart="342.00">
        <route edges="624410090 744825974#6 -97637311#1 -97637311#0"/>
    </vehicle>
    <vehicle id="96" depart="345.60">
        <route edges="1056276226#0 1056276226#1 744825974#4 744825974#5 744825974#6 744825974#7 744825974#0 744825974#1 744825974#2 984589551#0 984589551#1 984589551#2"/>
    </vehicle>
    <vehicle id="97" depart="349.20">
        <route edges="624410090 744825974#6 744825974#7 744825974#0 744825974#1 744825974#2 984589551#0 984589551#1 984589551#2"/>
    </vehicle>
    <vehicle id="99" depart="356.40">
        <route edges="97637311#0 97637311#1 744825974#7 744825974#0 744825974#1 744825974#2 984589551#0 984589551#1 984589551#2"/>
    </vehicle>
    <vehicle id="100" depart="360.00">
        <route edges="97637311#0 97637311#1 744825974#7 744825974#0 744825974#1 744825974#2 984589551#0 984589551#1 984589551#2"/>
    </vehicle>
    <vehicle id="102" depart="367.20">
        <route edges="624410090 744825974#6 -97637311#1 -97637311#0"/>
    </vehicle>
    <vehicle id="104" depart="374.40">
        <route edges="624410090 744825974#6 744825974#7 744825974#0 744825974#1 744825974#2 984589551#0 984589551#1 984589551#2"/>
    </vehicle>
    <vehicle id="105" depart="378.00">
        <route edges="1056276226#0 1056276226#1 744825974#4 946621531"/>
    </vehicle>
    <vehicle id="107" depart="385.20">
        <route edges="97637311#0 97637311#1 744825974#7 744825974#0 744825974#1 744825974#2 984589551#0 984589551#1 984589551#2"/>
    </vehicle>
    <vehicle id="108" depart="388.80">
        <route edges="744825961#0 744825961#1 744825974#2 744825974#3 744825974#4 946621531"/>
    </vehicle>
    <vehicle id="110" depart="396.00">
        <route edges="97637311#0 97637311#1 744825974#7 744825974#0 902979328#0 902979328#1"/>
    </vehicle>
    <vehicle id="111" depart="399.60">
        <route edges="744825961#0 744825961#1 744825974#2 744825974#3 744825974#4 946621531"/>
    </vehicle>
    <vehicle id="113" depart="406.80">
        <route edges="744825961#0 744825961#1 744825974#2 984589551#0 984589551#1 984589551#2"/>
    </vehicle>
    <vehicle id="116" depart="417.60">
        <route edges="744825961#0 744825961#1 744825974#2 744825974#3 744825974#4 946621531"/>
    </vehicle>
    <vehicle id="118" depart="424.80">
        <route edges="97637311#0 97637311#1 744825974#7 744825974#0 744825974#1 744825974#2 744825974#3 744825974#4 744825974#5 744825974#6 -97637311#1 -97637311#0"/>
    </vehicle>
    <vehicle id="119" depart="428.40">
        <route edges="744825961#0 744825961#1 744825974#2 744825974#3 744825974#4 744825974#5 744825974#6 744825974#7 744825974#0 902979328#0 902979328#1"/>
    </vehicle>
    <vehicle id="120" depart="432.00">
        <route edges="624410090 744825974#6 744825974#7 744825974#0 902979328#0 902979328#1"/>
    </vehicle>
    <vehicle id="121" depart="435.60">
        <route edges="744825961#0 744825961#1 744825974#2 984589551#0 984589551#1 984589551#2"/>
    </vehicle>
    <vehicle id="122" depart="439.20">
        <route edges="1056276226#0 1056276226#1 744825974#4 946621531"/>
    </vehicle>
    <vehicle id="125" depart="450.00">
        <route edges="1056276226#0 1056276226#1 744825974#4 946621531"/>
    </vehicle>
    <vehicle id="126" depart="453.60">
        <route edges="-744825973 -744825964#1 -744825964#0 744825964#0 744825964#1 744825973"/>
    </vehicle>
    <vehicle id="127" depart="457.20">
        <route edges="97637311#0 97637311#1 744825974#7 744825974#0 744825974#1 744825974#2 984589551#0 984589551#1 984589551#2"/>
    </vehicle>
    <vehicle id="129" depart="464.40">
        <route edges="1056276226#0 1056276226#1 744825974#4 744825974#5 744825974#6 744825974#7 744825974#0 744825974#1 744825974#2 984589551#0 984589551#1 984589551#2"/>
    </vehicle>
    <vehicle id="130" depart="468.00">
        <route edges="97637311#0 97637311#1 744825974#7 744825974#0 744825974#1 744825974#2 984589551#0 984589551#1 984589551#2"/>
    </vehicle>
    <vehicle id="132" depart="475.20">
        <route edges="97637311#0 97637311#1 744825974#7 744825974#0 744825974#1 744825974#2 744825974#3 744825974#4 946621531"/>
    </vehicle>
    <vehicle id="133" depart="478.80">
        <route edges="744825961#0 744825961#1 744825974#2 984589551#0 984589551#1 984589551#2"/>
    </vehicle>
    <vehicle id="136" depart="489.60">
        <route edges="744825961#0 744825961#1 744825974#2 984589551#0 984589551#1 984589551#2"/>
    </vehicle>
    <vehicle id="137" depart="493.20">
        <route edges="-744825973 -744825964#1 -744825964#0"/>
    </vehicle>
    <vehicle id="139" depart="500.40">
        <route edges="1056276226#0 1056276226#1 744825974#4 744825974#5 744825974#6 744825974#7 744825974#0 902979328#0 902979328#1"/>
    </vehicle>
    <vehicle id="141" depart="507.60">
        <route edges="744825961#0 744825961#1 744825974#2 744825974#3 744825974#4 744825974#5 744825974#6 -97637311#1 -97637311#0"/>
    </vehicle>
    <vehicle id="142" depart="511.20">
        <route edges="624410090 744825974#6 744825974#7 744825974#0 744825974#1 744825974#2 984589551#0 984589551#1 984589551#2"/>
    </vehicle>
    <vehicle id="144" depart="518.40">
        <route edges="624410090 744825974#6 -97637311#1 -97637311#0"/>
    </vehicle>
    <vehicle id="146" depart="525.60">
        <route edges="744825961#0 744825961#1 744825974#2 744825974#3 744825974#4 744825974#5 744825974#6 -97637311#1 -97637311#0"/>
    </vehicle>
    <vehicle id="150" depart="540.00">
        <route edges="97637311#0 97637311#1 744825974#7 744825974#0 902979328#0 902979328#1"/>
    </vehicle>
    <vehicle id="151" depart="543.60">
        <route edges="97637311#0 97637311#1 744825974#7 744825974#0 902979328#0 902979328#1"/>
    </vehicle>
    <vehicle id="152" depart="547.20">
        <route edges="-744825973 -744825964#1 -744825964#0"/>
    </vehicle>
    <vehicle id="153" depart="550.80">
        <route edges="1056276226#0 1056276226#1 744825974#4 744825974#5 744825974#6 744825974#7 744825974#0 744825974#1 744825974#2 984589551#0 984589551#1 984589551#2"/>
    </vehicle>
    <vehicle id="155" depart="558.00">
        <route edges="97637311#0 97637311#1 744825974#7 744825974#0 744825974#1 744825974#2 744825974#3 744825974#4 744825974#5 744825974#6 -97637311#1 -97637311#0"/>
    </vehicle>
    <vehicle id="158" depart="568.80">
        <route edges="624410090 744825974#6 744825974#7 744825974#0 902979328#0 902979328#1"/>
    </vehicle>
    <vehicle id="160" depart="576.00">
        <route edges="97637311#0 97637311#1 744825974#7 744825974#0 744825974#1 744825974#2 984589551#0 984589551#1 984589551#2"/>
    </vehicle>
    <vehicle id="163" depart="586.80">
        <route edges="1056276226#0 1056276226#1 744825974#4 744825974#5 744825974#6 744825974#7 744825974#0 744825974#1 744825974#2 984589551#0 984589551#1 984589551#2"/>
    </vehicle>
    <vehicle id="166" depart="597.60">
        <route edges="744825964#0 744825964#1 744825973 -744825973 -744825964#1 -744825964#0"/>
    </vehicle>
    <vehicle id="167" depart="601.20">
        <route edges="97637311#0 97637311#1 744825974#7 744825974#0 744825974#1 744825974#2 984589551#0 984589551#1 984589551#2"/>
    </vehicle>
    <vehicle id="168" depart="604.80">
        <route edges="1056276226#0 1056276226#1 744825974#4 946621531"/>
    </vehicle>
    <vehicle id="169" depart="608.40">
        <route edges="624410090 744825974#6 -97637311#1 -97637311#0"/>
    </vehicle>
    <vehicle id="172" depart="619.20">
        <route edges="1056276226#0 1056276226#1 744825974#4 744825974#5 744825974#6 744825974#7 744825974#0 744825974#1 744825974#2 984589551#0 984589551#1 984589551#2"/>
    </vehicle>
    <vehicle id="173" depart="622.80">
        <route edges="97637311#0 97637311#1 744825974#7 744825974#0 744825974#1 744825974#2 744825974#3 744825974#4 744825974#5 744825974#6 -97637311#1 -97637311#0"/>
    </vehicle>
    <vehicle id="175" depart="630.00">
        <route edges="97637311#0 97637311#1 744825974#7 744825974#0 902979328#0 902979328#1"/>
    </vehicle>
    <vehicle id="177" depart="637.20">
        <route edges="97637311#0 97637311#1 744825974#7 744825974#0 744825974#1 744825974#2 744825974#3 744825974#4 744825974#5 744825974#6 -97637311#1 -97637311#0"/>
    </vehicle>
    <vehicle id="178" depart="640.80">
        <route edges="97637311#0 97637311#1 744825974#7 744825974#0 744825974#1 744825974#2 744825974#3 744825974#4 744825974#5 744825974#6 -97637311#1 -97637311#0"/>
    </vehicle>
    <vehicle id="179" depart="644.40">
        <route edges="-744825973 -744825964#1 -744825964#0 744825964#0 744825964#1 744825973"/>
    </vehicle>
    <vehicle id="181" depart="651.60">
        <route edges="744825961#0 744825961#1 744825974#2 744825974#3 744825974#4 744825974#5 744825974#6 744825974#7 744825974#0 902979328#0 902979328#1"/>
    </vehicle>
    <vehicle id="182" depart="655.20">
        <route edges="624410090 744825974#6 744825974#7 744825974#0 902979328#0 902979328#1"/>
    </vehicle>
    <vehicle id="183" depart="658.80">
        <route edges="1056276226#0 1056276226#1 744825974#4 946621531"/>
    </vehicle>
    <vehicle id="185" depart="666.00">
        <route edges="744825961#0 744825961#1 744825974#2 744825974#3 744825974#4 946621531"/>
    </vehicle>
    <vehicle id="188" depart="676.80">
        <route edges="744825961#0 744825961#1 744825974#2 744825974#3 744825974#4 744825974#5 744825974#6 -97637311#1 -97637311#0"/>
    </vehicle>
    <vehicle id="189" depart="680.40">
        <route edges="1056276226#0 1056276226#1 744825974#4 744825974#5 744825974#6 744825974#7 744825974#0 744825974#1 744825974#2 984589551#0 984589551#1 984589551#2"/>
    </vehicle>
    <vehicle id="192" depart="691.20">
        <route edges="624410090 744825974#6 -97637311#1 -97637311#0"/>
    </vehicle>
    <vehicle id="193" depart="694.80">
        <route edges="-744825973 -744825964#1 -744825964#0 744825964#0 744825964#1 744825973"/>
    </vehicle>
    <vehicle id="194" depart="698.40">
        <route edges="97637311#0 97637311#1 744825974#7 744825974#0 744825974#1 744825974#2 744825974#3 744825974#4 946621531"/>
    </vehicle>
    <vehicle id="195" depart="702.00">
        <route edges="97637311#0 97637311#1 744825974#7 744825974#0 902979328#0 902979328#1"/>
    </vehicle>
    <vehicle id="196" depart="705.60">
        <route edges="1056276226#0 1056276226#1 744825974#4 744825974#5 744825974#6 744825974#7 744825974#0 902979328#0 902979328#1"/>
    </vehicle>
    <vehicle id="198" depart="712.80">
        <route edges="624410090 744825974#6 744825974#7 744825974#0 902979328#0 902979328#1"/>
    </vehicle>
    <vehicle id="200" depart="720.00">
        <route edges="624410090 744825974#6 -97637311#1 -97637311#0"/>
    </vehicle>
    <vehicle id="201" depart="723.60">
        <route edges="624410090 744825974#6 744825974#7 744825974#0 744825974#1 744825974#2 984589551#0 984589551#1 984589551#2"/>
    </vehicle>
    <vehicle id="210" depart="756.00">
        <route edges="624410090 744825974#6 744825974#7 744825974#0 902979328#0 902979328#1"/>
    </vehicle>
    <vehicle id="211" depart="759.60">
        <route edges="1056276226#0 1056276226#1 744825974#4 946621531"/>
    </vehicle>
    <vehicle id="212" depart="763.20">
        <route edges="624410090 744825974#6 -97637311#1 -97637311#0"/>
    </vehicle>
    <vehicle id="215" depart="774.00">
        <route edges="-744825973 -744825964#1 -744825964#0 744825964#0 744825964#1 744825973"/>
    </vehicle>
    <vehicle id="216" depart="777.60">
        <route edges="1056276226#0 1056276226#1 744825974#4 744825974#5 744825974#6 744825974#7 744825974#0 744825974#1 744825974#2 984589551#0 984589551#1 984589551#2"/>
    </vehicle>
    <vehicle id="218" depart="784.80">
        <route edges="1056276226#0 1056276226#1 744825974#4 744825974#5 744825974#6 744825974#7 744825974#0 744825974#1 744825974#2 984589551#0 984589551#1 984589551#2"/>
    </vehicle>
    <vehicle id="219" depart="788.40">
        <route edges="624410090 744825974#6 744825974#7 744825974#0 744825974#1 744825974#2 744825974#3 744825974#4 946621531"/>
    </vehicle>
    <vehicle id="221" depart="795.60">
        <route edges="744825961#0 744825961#1 744825974#2 984589551#0 984589551#1 984589551#2"/>
    </vehicle>
    <vehicle id="222" depart="799.20">
        <route edges="97637311#0 97637311#1 744825974#7 744825974#0 902979328#0 902979328#1"/>
    </vehicle>
    <vehicle id="225" depart="810.00">
        <route edges="97637311#0 97637311#1 744825974#7 744825974#0 744825974#1 744825974#2 744825974#3 744825974#4 946621531"/>
    </vehicle>
    <vehicle id="226" depart="813.60">
        <route edges="624410090 744825974#6 -97637311#1 -97637311#0"/>
    </vehicle>
    <vehicle id="227" depart="817.20">
        <route edges="1056276226#0 1056276226#1 744825974#4 744825974#5 744825974#6 744825974#7 744825974#0 902979328#0 902979328#1"/>
    </vehicle>
    <vehicle id="229" depart="824.40">
        <route edges="744825961#0 744825961#1 744825974#2 744825974#3 744825974#4 744825974#5 744825974#6 -97637311#1 -97637311#0"/>
    </vehicle>
    <vehicle id="231" depart="831.60">
        <route edges="1056276226#0 1056276226#1 744825974#4 744825974#5 744825974#6 -97637311#1 -97637311#0"/>
    </vehicle>
    <vehicle id="233" depart="838.80">
        <route edges="1056276226#0 1056276226#1 744825974#4 946621531"/>
    </vehicle>
    <vehicle id="234" depart="842.40">
        <route edges="744825964#0 744825964#1 744825973 -744825973 -744825964#1 -744825964#0"/>
    </vehicle>
    <vehicle id="235" depart="846.00">
        <route edges="624410090 744825974#6 744825974#7 744825974#0 902979328#0 902979328#1"/>
    </vehicle>
    <vehicle id="236" depart="849.60">
        <route edges="624410090 744825974#6 -97637311#1 -97637311#0"/>
    </vehicle>
    <vehicle id="237" depart="853.20">
        <route edges="624410090 744825974#6 744825974#7 744825974#0 744825974#1 744825974#2 984589551#0 984589551#1 984589551#2"/>
    </vehicle>
    <vehicle id="238" depart="856.80">
        <route edges="744825961#0 744825961#1 744825974#2 744825974#3 744825974#4 946621531"/>
    </vehicle>
    <vehicle id="239" depart="860.40">
        <route edges="97637311#0 97637311#1 744825974#7 744825974#0 744825974#1 744825974#2 744825974#3 744825974#4 946621531"/>
    </vehicle>
    <vehicle id="241" depart="867.60">
        <route edges="624410090 744825974#6 744825974#7 744825974#0 744825974#1 744825974#2 744825974#3 744825974#4 946621531"/>
    </vehicle>
    <vehicle id="242" depart="871.20">
        <route edges="97637311#0 97637311#1 744825974#7 744825974#0 744825974#1 744825974#2 984589551#0 984589551#1 984589551#2"/>
    </vehicle>
    <vehicle id="243" depart="874.80">
        <route edges="624410090 744825974#6 744825974#7 744825974#0 744825974#1 744825974#2 744825974#3 744825974#4 946621531"/>
    </vehicle>
    <vehicle id="244" depart="878.40">
        <route edges="744825961#0 744825961#1 744825974#2 744825974#3 744825974#4 744825974#5 744825974#6 744825974#7 744825974#0 902979328#0 902979328#1"/>
    </vehicle>
    <vehicle id="245" depart="882.00">
        <route edges="1056276226#0 1056276226#1 744825974#4 744825974#5 744825974#6 -97637311#1 -97637311#0"/>
    </vehicle>
    <vehicle id="247" depart="889.20">
        <route edges="624410090 744825974#6 744825974#7 744825974#0 744825974#1 744825974#2 744825974#3 744825974#4 946621531"/>
    </vehicle>
    <vehicle id="251" depart="903.60">
        <route edges="624410090 744825974#6 744825974#7 744825974#0 902979328#0 902979328#1"/>
    </vehicle>
    <vehicle id="253" depart="910.80">
        <route edges="-744825973 -744825964#1 -744825964#0 744825964#0 744825964#1 744825973"/>
    </vehicle>
    <vehicle id="254" depart="914.40">
        <route edges="-744825973 -744825964#1 -744825964#0 744825964#0 744825964#1 744825973"/>
    </vehicle>
    <vehicle id="255" depart="918.00">
        <route edges="1056276226#0 1056276226#1 744825974#4 744825974#5 744825974#6 -97637311#1 -97637311#0"/>
    </vehicle>
    <vehicle id="256" depart="921.60">
        <route edges="744825964#0 744825964#1 744825973"/>
    </vehicle>
    <vehicle id="261" depart="939.60">
        <route edges="744825961#0 744825961#1 744825974#2 744825974#3 744825974#4 946621531"/>
    </vehicle>
    <vehicle id="262" depart="943.20">
        <route edges="744825961#0 744825961#1 744825974#2 744825974#3 744825974#4 946621531"/>
    </vehicle>
    <vehicle id="263" depart="946.80">
        <route edges="97637311#0 97637311#1 744825974#7 744825974#0 744825974#1 744825974#2 744825974#3 744825974#4 744825974#5 744825974#6 -97637311#1 -97637311#0"/>
    </vehicle>
    <vehicle id="264" depart="950.40">
        <route edges="-744825973 -744825964#1 -744825964#0"/>
    </vehicle>
    <vehicle id="266" depart="957.60">
        <route edges="744825961#0 744825961#1 744825974#2 744825974#3 744825974#4 744825974#5 744825974#6 -97637311#1 -97637311#0"/>
    </vehicle>
    <vehicle id="268" depart="964.80">
        <route edges="1056276226#0 1056276226#1 744825974#4 744825974#5 744825974#6 744825974#7 744825974#0 902979328#0 902979328#1"/>
    </vehicle>
    <vehicle id="269" depart="968.40">
        <route edges="744825964#0 744825964#1 744825973 -744825973 -744825964#1 -744825964#0"/>
    </vehicle>
    <vehicle id="271" depart="975.60">
        <route edges="-744825973 -744825964#1 -744825964#0"/>
    </vehicle>
    <vehicle id="272" depart="979.20">
        <route edges="1056276226#0 1056276226#1 744825974#4 946621531"/>
    </vehicle>
    <vehicle id="274" depart="986.40">
        <route edges="744825964#0 744825964#1 744825973 -744825973 -744825964#1 -744825964#0"/>
    </vehicle>
    <vehicle id="277" depart="997.20">
        <route edges="97637311#0 97637311#1 744825974#7 744825974#0 902979328#0 902979328#1"/>
    </vehicle>
    <vehicle id="279" depart="1004.40">
        <route edges="744825964#0 744825964#1 744825973"/>
    </vehicle>
    <vehicle id="282" depart="1015.20">
        <route edges="97637311#0 97637311#1 744825974#7 744825974#0 744825974#1 744825974#2 744825974#3 744825974#4 946621531"/>
    </vehicle>
    <vehicle id="284" depart="1022.40">
        <route edges="744825961#0 744825961#1 744825974#2 744825974#3 744825974#4 946621531"/>
    </vehicle>
    <vehicle id="285" depart="1026.00">
        <route edges="744825964#0 744825964#1 744825973"/>
    </vehicle>
    <vehicle id="287" depart="1033.20">
        <route edges="1056276226#0 1056276226#1 744825974#4 946621531"/>
    </vehicle>
    <vehicle id="289" depart="1040.40">
        <route edges="624410090 744825974#6 744825974#7 744825974#0 744825974#1 744825974#2 744825974#3 744825974#4 946621531"/>
    </vehicle>
    <vehicle id="290" depart="1044.00">
        <route edges="1056276226#0 1056276226#1 744825974#4 744825974#5 744825974#6 744825974#7 744825974#0 744825974#1 744825974#2 984589551#0 984589551#1 984589551#2"/>
    </vehicle>
    <vehicle id="291" depart="1047.60">
        <route edges="744825964#0 744825964#1 744825973 -744825973 -744825964#1 -744825964#0"/>
    </vehicle>
    <vehicle id="292" depart="1051.20">
        <route edges="97637311#0 97637311#1 744825974#7 744825974#0 744825974#1 744825974#2 744825974#3 744825974#4 744825974#5 744825974#6 -97637311#1 -97637311#0"/>
    </vehicle>