<?xml version="1.0" encoding="UTF-8"?>

<!-- generated on 2024-09-03 01:37:09 by Eclipse SUMO netconvert Version 1.20.0
<configuration xmlns:xsi="http://www.w3.org/2001/XMLSchema-instance" xsi:noNamespaceSchemaLocation="http://sumo.dlr.de/xsd/netconvertConfiguration.xsd">

    <input>
        <osm-files value="train_files/intersection/easy/osm_files/map(61).osm"/>
    </input>

    <output>
        <output-file value="train_files/intersection/easy/outputs/map(61)_dict/map(61)/map(61).net.xml"/>
    </output>

    <projection>
        <proj.utm value="true"/>
    </projection>

    <building_defaults>
        <default.junctions.keep-clear value="false"/>
    </building_defaults>

</configuration>
-->

<net version="1.20" junctionCornerDetail="5" limitTurnSpeed="5.50" xmlns:xsi="http://www.w3.org/2001/XMLSchema-instance" xsi:noNamespaceSchemaLocation="http://sumo.dlr.de/xsd/net_file.xsd">

    <location netOffset="-449553.34,-5417671.09" convBoundary="0.00,0.00,298.03,283.77" origBoundary="2.311504,48.909089,2.317696,48.912486" projParameter="+proj=utm +zone=31 +ellps=WGS84 +datum=WGS84 +units=m +no_defs"/>

    <type id="highway.footway" priority="1" numLanes="1" speed="2.78" allow="pedestrian" oneway="1" width="2.00"/>
    <type id="highway.residential" priority="3" numLanes="1" speed="13.89" disallow="tram rail_urban rail rail_electric rail_fast ship container cable_car subway aircraft wheelchair scooter drone" oneway="0"/>
    <type id="highway.secondary" priority="11" numLanes="1" speed="27.78" disallow="tram rail_urban rail rail_electric rail_fast ship container cable_car subway aircraft wheelchair scooter drone" oneway="0"/>
    <type id="highway.service" priority="1" numLanes="1" speed="5.56" allow="pedestrian delivery bicycle" oneway="0"/>
    <type id="highway.tertiary" priority="10" numLanes="1" speed="22.22" disallow="tram rail_urban rail rail_electric rail_fast ship container cable_car subway aircraft wheelchair scooter drone" oneway="0"/>
    <type id="highway.tertiary_link" priority="5" numLanes="1" speed="22.22" disallow="tram rail_urban rail rail_electric rail_fast ship container cable_car subway aircraft wheelchair scooter drone" oneway="0"/>

    <edge id=":11368035703_0" function="internal">
        <lane id=":11368035703_0_0" index="0" disallow="tram rail_urban rail rail_electric rail_fast ship container cable_car subway aircraft wheelchair scooter drone" speed="8.33" length="9.45" shape="144.52,110.50 136.02,106.39"/>
    </edge>
    <edge id=":11368035703_1" function="internal">
        <lane id=":11368035703_1_0" index="0" allow="pedestrian delivery bicycle" speed="6.77" length="3.38" shape="144.52,110.50 142.03,108.82 141.83,108.50"/>
    </edge>
    <edge id=":11368035703_7" function="internal">
        <lane id=":11368035703_7_0" index="0" allow="pedestrian delivery bicycle" speed="6.77" length="7.40" shape="141.83,108.50 140.79,106.79 140.79,104.40 142.04,101.67"/>
    </edge>
    <edge id=":11368035703_2" function="internal">
        <lane id=":11368035703_2_0" index="0" allow="pedestrian delivery bicycle" speed="4.92" length="5.15" shape="144.73,103.40 144.13,104.71 144.13,105.85 144.72,106.82 145.92,107.62"/>
    </edge>
    <edge id=":11368035703_3" function="internal">
        <lane id=":11368035703_3_0" index="0" allow="pedestrian delivery bicycle" speed="6.95" length="10.23" shape="144.73,103.40 142.86,105.65 140.78,106.89 138.50,107.14 136.02,106.39"/>
    </edge>
    <edge id=":11368035703_4" function="internal">
        <lane id=":11368035703_4_0" index="0" allow="pedestrian delivery bicycle" speed="3.65" length="4.67" shape="144.73,103.40 143.41,103.98 142.52,103.88 142.06,103.11 142.04,101.67"/>
    </edge>
    <edge id=":11368035703_5" function="internal">
        <lane id=":11368035703_5_0" index="0" allow="pedestrian delivery bicycle" speed="5.47" length="5.52" shape="137.41,103.51 138.68,103.87 139.88,103.68 141.00,102.95 142.04,101.67"/>
    </edge>
    <edge id=":11368035703_6" function="internal">
        <lane id=":11368035703_6_0" index="0" disallow="tram rail_urban rail rail_electric rail_fast ship container cable_car subway aircraft wheelchair scooter drone" speed="8.33" length="9.45" shape="137.41,103.51 145.92,107.62"/>
    </edge>
    <edge id=":11368035709_0" function="internal">
        <lane id=":11368035709_0_0" index="0" allow="pedestrian delivery bicycle" speed="3.65" length="4.67" shape="159.39,28.32 160.78,27.92 161.65,28.14 162.00,28.96 161.84,30.39"/>
    </edge>
    <edge id=":11469930746_0" function="internal">
        <lane id=":11469930746_0_0" index="0" disallow="tram rail_urban rail rail_electric rail_fast ship container cable_car subway aircraft wheelchair scooter drone" speed="13.89" length="0.49" shape="67.67,101.95 67.70,101.75 67.71,101.61 67.74,101.48 67.83,101.30"/>
        <lane id=":11469930746_0_1" index="1" disallow="tram rail_urban rail rail_electric rail_fast ship container cable_car subway aircraft wheelchair scooter drone" speed="13.89" length="0.49" shape="70.75,102.79 70.53,103.01"/>
    </edge>
    <edge id=":1657542287_0" function="internal">
        <lane id=":1657542287_0_0" index="0" disallow="tram rail_urban rail rail_electric rail_fast ship container cable_car subway aircraft wheelchair scooter drone" speed="3.65" length="4.67" shape="105.84,283.66 105.13,284.91 104.36,285.37 103.53,285.02 102.65,283.88"/>
    </edge>
    <edge id=":1839276531_0" function="internal">
        <lane id=":1839276531_0_0" index="0" disallow="tram rail_urban rail rail_electric rail_fast ship container cable_car subway aircraft wheelchair scooter drone" speed="11.11" length="9.73" shape="94.58,41.51 96.18,39.09 97.38,37.43 98.20,35.65 98.64,32.86"/>
    </edge>
    <edge id=":1839276531_1" function="internal">
        <lane id=":1839276531_1_0" index="0" disallow="tram rail_urban rail rail_electric rail_fast ship container cable_car subway aircraft wheelchair scooter drone" speed="13.89" length="9.71" shape="98.27,42.57 98.64,32.86"/>
    </edge>
    <edge id=":1839276532_0" function="internal">
        <lane id=":1839276532_0_0" index="0" disallow="tram rail_urban rail rail_electric rail_fast ship container cable_car subway aircraft wheelchair scooter drone" speed="3.65" length="4.67" shape="0.90,56.04 0.05,54.88 -0.04,53.99 0.61,53.38 2.01,53.04"/>
    </edge>
    <edge id=":1839276538_0" function="internal">
        <lane id=":1839276538_0_0" index="0" disallow="tram rail_urban rail rail_electric rail_fast ship container cable_car subway aircraft wheelchair scooter drone" speed="8.33" length="9.15" shape="71.33,74.30 68.96,73.07 67.17,72.58 65.26,72.52 62.55,72.57"/>
    </edge>
    <edge id=":1839276538_1" function="internal">
        <lane id=":1839276538_1_0" index="0" disallow="tram rail_urban rail rail_electric rail_fast ship container cable_car subway aircraft wheelchair scooter drone" speed="6.18" length="11.52" shape="71.33,74.30 68.41,72.09 67.37,69.97 68.21,67.95 70.92,66.03"/>
    </edge>
    <edge id=":1839276538_2" function="internal">
        <lane id=":1839276538_2_0" index="0" disallow="tram rail_urban rail rail_electric rail_fast ship container cable_car subway aircraft wheelchair scooter drone" speed="3.80" length="5.26" shape="71.33,74.30 70.02,73.33 69.62,72.40 70.12,71.53 71.52,70.70"/>
    </edge>
    <edge id=":1839276538_3" function="internal">
        <lane id=":1839276538_3_0" index="0" disallow="tram rail_urban rail rail_electric rail_fast ship container cable_car subway aircraft wheelchair scooter drone" speed="8.33" length="9.20" shape="62.54,69.37 65.19,69.14 66.92,68.47 68.55,67.42 70.92,66.03"/>
    </edge>
    <edge id=":1839276538_4" function="internal">
        <lane id=":1839276538_4_0" index="0" disallow="tram rail_urban rail rail_electric rail_fast ship container cable_car subway aircraft wheelchair scooter drone" speed="8.33" length="9.29" shape="62.54,69.37 65.30,69.25 67.26,69.17 69.10,69.52 71.52,70.70"/>
    </edge>
    <edge id=":1839276538_5" function="internal">
        <lane id=":1839276538_5_0" index="0" disallow="tram rail_urban rail rail_electric rail_fast ship container cable_car subway aircraft wheelchair scooter drone" speed="3.65" length="4.67" shape="62.54,69.37 63.74,70.17 64.14,70.97 63.74,71.77 62.55,72.57"/>
    </edge>
    <edge id=":249527872_0" function="internal">
        <lane id=":249527872_0_0" index="0" disallow="tram rail_urban rail rail_electric rail_fast ship container cable_car subway aircraft wheelchair scooter drone" speed="7.81" length="6.52" shape="102.09,76.16 101.62,78.08 101.49,79.78 101.72,81.24 102.29,82.47"/>
    </edge>
    <edge id=":249527872_1" function="internal">
        <lane id=":249527872_1_0" index="0" disallow="tram rail_urban rail rail_electric rail_fast ship container cable_car subway aircraft wheelchair scooter drone" speed="8.33" length="6.95" shape="97.48,77.53 99.09,78.82 100.17,79.75 101.11,80.80 102.29,82.47"/>
    </edge>
    <edge id=":249527937_0" function="internal">
        <lane id=":249527937_0_0" index="0" disallow="tram rail_urban rail rail_electric rail_fast ship container cable_car subway aircraft wheelchair scooter drone" speed="3.65" length="4.67" shape="7.16,253.09 5.95,253.88 5.06,253.93 4.48,253.24 4.23,251.82"/>
    </edge>
    <edge id=":249691609_0" function="internal">
        <lane id=":249691609_0_0" index="0" disallow="tram rail_urban rail rail_electric rail_fast ship container cable_car subway aircraft wheelchair scooter drone" speed="3.65" length="4.67" shape="298.72,181.55 299.46,182.79 299.47,183.69 298.76,184.23 297.33,184.43"/>
    </edge>
    <edge id=":302311916_0" function="internal">
        <lane id=":302311916_0_0" index="0" disallow="tram rail_urban rail rail_electric rail_fast ship container cable_car subway aircraft wheelchair scooter drone" speed="6.97" length="8.90" shape="98.52,108.28 97.47,106.44 95.89,105.24 93.79,104.69 91.17,104.79"/>
    </edge>
    <edge id=":302311916_1" function="internal">
        <lane id=":302311916_1_0" index="0" disallow="tram rail_urban rail rail_electric rail_fast ship container cable_car subway aircraft wheelchair scooter drone" speed="8.37" length="9.99" shape="102.14,97.70 101.00,99.47 100.52,101.64 100.70,104.22 101.53,107.19"/>
    </edge>
    <edge id=":302311916_2" function="internal">
        <lane id=":302311916_2_0" index="0" disallow="tram rail_urban rail rail_electric rail_fast ship container cable_car subway aircraft wheelchair scooter drone" speed="8.33" length="13.35" shape="102.14,97.70 99.68,100.25 97.23,102.34 94.49,103.89 91.17,104.79"/>
    </edge>
    <edge id=":302312108_0" function="internal">
        <lane id=":302312108_0_0" index="0" disallow="tram rail_urban rail rail_electric rail_fast ship container cable_car subway aircraft wheelchair scooter drone" speed="6.55" length="6.43" shape="83.65,104.07 82.02,103.47 80.48,103.37 79.02,103.77 77.65,104.67"/>
    </edge>
    <edge id=":302312108_1" function="internal">
        <lane id=":302312108_1_0" index="0" disallow="tram rail_urban rail rail_electric rail_fast ship container cable_car subway aircraft wheelchair scooter drone" speed="8.33" length="7.97" shape="83.65,104.07 81.56,102.98 80.19,102.10 78.96,101.04 77.27,99.39"/>
    </edge>
    <edge id=":302312109_0" function="internal">
        <lane id=":302312109_0_0" index="0" disallow="tram rail_urban rail rail_electric rail_fast ship container cable_car subway aircraft wheelchair scooter drone" speed="8.33" length="11.27" shape="77.16,99.28 75.19,96.88 74.30,94.64 74.00,92.13 73.80,88.90"/>
    </edge>
    <edge id=":302312109_1" function="internal">
        <lane id=":302312109_1_0" index="0" disallow="tram rail_urban rail rail_electric rail_fast ship container cable_car subway aircraft wheelchair scooter drone" speed="11.11" length="8.43" shape="70.74,96.48 72.13,94.38 73.17,92.89 73.76,91.31 73.80,88.90"/>
    </edge>
    <edge id=":302312112_0" function="internal">
        <lane id=":302312112_0_0" index="0" disallow="tram rail_urban rail rail_electric rail_fast ship container cable_car subway aircraft wheelchair scooter drone" speed="8.33" length="8.26" shape="76.89,73.85 78.99,75.11 80.56,75.88 82.22,76.11 84.58,75.79"/>
    </edge>
    <edge id=":302312112_1" function="internal">
        <lane id=":302312112_1_0" index="0" disallow="tram rail_urban rail rail_electric rail_fast ship container cable_car subway aircraft wheelchair scooter drone" speed="6.34" length="7.81" shape="75.25,83.21 76.08,80.81 76.23,78.83 75.71,77.28 74.51,76.16"/>
    </edge>
    <edge id=":302312112_2" function="internal">
        <lane id=":302312112_2_0" index="0" disallow="tram rail_urban rail rail_electric rail_fast ship container cable_car subway aircraft wheelchair scooter drone" speed="8.33" length="12.40" shape="75.25,83.21 76.84,80.49 78.93,78.34 81.51,76.78 84.58,75.79"/>
    </edge>
    <edge id=":302312114_0" function="internal">
        <lane id=":302312114_0_0" index="0" disallow="tram rail_urban rail rail_electric rail_fast ship container cable_car subway aircraft wheelchair scooter drone" speed="8.33" length="0.46" shape="102.59,82.91 102.66,83.02 102.71,83.10 102.74,83.19 102.78,83.32"/>
    </edge>
    <edge id=":302312115_0" function="internal">
        <lane id=":302312115_0_0" index="0" disallow="tram rail_urban rail rail_electric rail_fast ship container cable_car subway aircraft wheelchair scooter drone" speed="7.43" length="7.07" shape="108.33,94.48 106.94,94.47 105.47,94.97 103.92,96.00 102.27,97.55"/>
    </edge>
    <edge id=":302312115_1" function="internal">
        <lane id=":302312115_1_0" index="0" disallow="tram rail_urban rail rail_electric rail_fast ship container cable_car subway aircraft wheelchair scooter drone" speed="7.82" length="8.27" shape="103.52,85.68 104.44,87.85 105.65,89.52 107.16,90.69 108.98,91.35"/>
    </edge>
    <edge id=":302312115_2" function="internal">
        <lane id=":302312115_2_0" index="0" disallow="tram rail_urban rail rail_electric rail_fast ship container cable_car subway aircraft wheelchair scooter drone" speed="8.33" length="12.50" shape="103.52,85.68 104.37,89.37 104.45,92.58 103.75,95.31 102.27,97.55"/>
    </edge>
    <edge id=":302314581_0" function="internal">
        <lane id=":302314581_0_0" index="0" disallow="tram rail_urban rail rail_electric rail_fast ship container cable_car subway aircraft wheelchair scooter drone" speed="13.89" length="11.89" shape="74.42,107.45 71.93,109.58 69.98,111.45 68.36,113.56 66.86,116.43"/>
    </edge>
    <edge id=":302314581_1" function="internal">
        <lane id=":302314581_1_0" index="0" disallow="tram rail_urban rail rail_electric rail_fast ship container cable_car subway aircraft wheelchair scooter drone" speed="5.39" length="4.30" shape="74.42,107.45 71.75,109.32 70.72,109.37"/>
    </edge>
    <edge id=":302314581_5" function="internal">
        <lane id=":302314581_5_0" index="0" disallow="tram rail_urban rail rail_electric rail_fast ship container cable_car subway aircraft wheelchair scooter drone" speed="5.39" length="5.94" shape="70.72,109.37 70.19,109.39 69.74,107.65 70.40,104.10"/>
    </edge>
    <edge id=":302314581_2" function="internal">
        <lane id=":302314581_2_0" index="0" disallow="tram rail_urban rail rail_electric rail_fast ship container cable_car subway aircraft wheelchair scooter drone" speed="13.89" length="12.66" shape="61.00,113.85 62.81,110.65 64.48,108.67 65.99,106.63 67.31,103.25"/>
        <lane id=":302314581_2_1" index="1" disallow="tram rail_urban rail rail_electric rail_fast ship container cable_car subway aircraft wheelchair scooter drone" speed="13.89" length="12.66" shape="63.93,115.14 65.79,111.81 67.50,109.74 69.04,107.60 70.40,104.10"/>
    </edge>
    <edge id=":302314581_4" function="internal">
        <lane id=":302314581_4_0" index="0" disallow="tram rail_urban rail rail_electric rail_fast ship container cable_car subway aircraft wheelchair scooter drone" speed="3.65" length="1.44" shape="63.93,115.14 65.15,114.37"/>
    </edge>
    <edge id=":302314581_6" function="internal">
        <lane id=":302314581_6_0" index="0" disallow="tram rail_urban rail rail_electric rail_fast ship container cable_car subway aircraft wheelchair scooter drone" speed="3.65" length="3.23" shape="65.15,114.37 66.04,114.32 66.61,115.01 66.86,116.43"/>
    </edge>
    <edge id=":302314583_0" function="internal">
        <lane id=":302314583_0_0" index="0" disallow="tram rail_urban rail rail_electric rail_fast ship container cable_car subway aircraft wheelchair scooter drone" speed="9.53" length="5.93" shape="88.10,75.06 89.75,74.58 90.76,73.94 91.60,73.01 92.74,71.66"/>
    </edge>
    <edge id=":302314583_1" function="internal">
        <lane id=":302314583_1_0" index="0" disallow="tram rail_urban rail rail_electric rail_fast ship container cable_car subway aircraft wheelchair scooter drone" speed="8.33" length="5.96" shape="88.10,75.06 89.82,74.80 91.03,74.89 92.22,75.25 93.90,75.81"/>
    </edge>
    <edge id=":3655856213_0" function="internal">
        <lane id=":3655856213_0_0" index="0" disallow="tram rail_urban rail rail_electric rail_fast ship container cable_car subway aircraft wheelchair scooter drone" speed="13.89" length="0.31" shape="99.06,109.84 99.04,109.75 99.03,109.69 99.01,109.63 98.98,109.54"/>
    </edge>
    <edge id=":3655856213_1" function="internal">
        <lane id=":3655856213_1_0" index="0" disallow="tram rail_urban rail rail_electric rail_fast ship container cable_car subway aircraft wheelchair scooter drone" speed="13.89" length="0.93" shape="101.99,108.45 102.08,108.71 102.14,108.89 102.17,109.07 102.22,109.34"/>
    </edge>
    <edge id=":5615942210_0" function="internal">
        <lane id=":5615942210_0_0" index="0" disallow="tram rail_urban rail rail_electric rail_fast ship container cable_car subway aircraft wheelchair scooter drone" speed="13.89" length="5.30" shape="67.94,101.13 70.64,96.65"/>
        <lane id=":5615942210_0_1" index="1" disallow="tram rail_urban rail rail_electric rail_fast ship container cable_car subway aircraft wheelchair scooter drone" speed="13.89" length="5.30" shape="70.64,102.84 73.41,98.26"/>
    </edge>
    <edge id=":5615942211_0" function="internal">
        <lane id=":5615942211_0_0" index="0" disallow="tram rail_urban rail rail_electric rail_fast ship container cable_car subway aircraft wheelchair scooter drone" speed="13.89" length="3.85" shape="77.49,104.80 74.57,107.31"/>
    </edge>

    <edge id="-1225846080" from="11368035703" to="11368035709" priority="1" type="highway.service" shape="140.61,106.84 144.41,100.94 144.98,94.08 145.49,84.66 146.18,74.46 147.96,53.08 154.69,36.37 160.62,29.36">
        <lane id="-1225846080_0" index="0" allow="pedestrian delivery bicycle" speed="5.56" length="77.29" shape="142.04,101.67 142.85,100.41 143.39,93.97 143.90,84.56 144.59,74.34 146.38,52.71 153.30,35.53 159.39,28.32"/>
    </edge>
    <edge id="-173096726" from="249527937" to="302314581" priority="11" type="highway.secondary" shape="5.69,252.46 19.91,219.58 24.70,207.96 65.80,114.87">
        <lane id="-173096726_0" index="0" disallow="tram rail_urban rail rail_electric rail_fast ship container cable_car subway aircraft wheelchair scooter drone" speed="13.89" length="149.17" shape="1.29,250.55 15.49,217.71 20.29,206.08 61.00,113.85"/>
        <lane id="-173096726_1" index="1" disallow="tram rail_urban rail rail_electric rail_fast ship container cable_car subway aircraft wheelchair scooter drone" speed="13.89" length="149.17" shape="4.23,251.82 18.44,218.95 23.23,207.33 63.93,115.14"/>
        <param key="ref" value="D 17"/>
    </edge>
    <edge id="-23254322#0" from="11368035703" to="302312115" priority="3" type="highway.residential" shape="140.61,106.84 120.40,97.06 111.80,93.57 104.13,91.98">
        <lane id="-23254322#0_0" index="0" disallow="tram rail_urban rail rail_electric rail_fast ship container cable_car subway aircraft wheelchair scooter drone" speed="8.33" length="30.22" shape="136.02,106.39 119.75,98.52 111.33,95.10 108.33,94.48"/>
    </edge>
    <edge id="-23254322#1" from="249691609" to="11368035703" priority="3" type="highway.residential" shape="298.03,182.99 293.45,180.78 245.31,157.49 140.61,106.84">
        <lane id="-23254322#1_0" index="0" disallow="tram rail_urban rail rail_electric rail_fast ship container cable_car subway aircraft wheelchair scooter drone" speed="8.33" length="169.75" shape="297.33,184.43 292.75,182.22 244.61,158.93 144.52,110.50"/>
    </edge>
    <edge id="-27536548" from="1839276538" to="302312112" priority="10" type="highway.tertiary" shape="61.30,70.98 69.15,71.16 76.22,75.31 78.84,78.04">
        <lane id="-27536548_0" index="0" disallow="tram rail_urban rail rail_electric rail_fast ship container cable_car subway aircraft wheelchair scooter drone" speed="8.33" length="6.23" shape="71.52,70.70 76.89,73.85"/>
    </edge>
    <edge id="-27536658#0" from="3655856213" to="302311916" priority="10" type="highway.tertiary">
        <lane id="-27536658#0_0" index="0" disallow="tram rail_urban rail rail_electric rail_fast ship container cable_car subway aircraft wheelchair scooter drone" speed="13.89" length="1.34" shape="98.98,109.54 98.52,108.28"/>
    </edge>
    <edge id="-27536658#1" from="1657542287" to="3655856213" priority="10" type="highway.tertiary" shape="104.25,283.77 103.46,272.29 103.39,265.83 103.34,260.93 102.74,199.90 102.43,169.61 101.92,117.70 100.59,109.29">
        <lane id="-27536658#1_0" index="0" disallow="tram rail_urban rail rail_electric rail_fast ship container cable_car subway aircraft wheelchair scooter drone" speed="13.89" length="174.17" shape="102.65,283.88 101.86,272.36 101.79,265.84 101.74,260.95 101.14,199.91 100.83,169.63 100.32,117.84 99.06,109.84"/>
    </edge>
    <edge id="-648755600" from="1839276532" to="1839276538" priority="10" type="highway.tertiary" shape="1.45,54.54 10.22,57.80 44.49,71.02 61.30,70.98">
        <lane id="-648755600_0" index="0" disallow="tram rail_urban rail rail_electric rail_fast ship container cable_car subway aircraft wheelchair scooter drone" speed="8.33" length="63.55" shape="2.01,53.04 10.79,56.30 44.78,69.42 62.54,69.37"/>
    </edge>
    <edge id="1225846080" from="11368035709" to="11368035703" priority="1" type="highway.service" shape="160.62,29.36 154.69,36.37 147.96,53.08 146.18,74.46 145.49,84.66 144.98,94.08 144.41,100.94 140.61,106.84">
        <lane id="1225846080_0" index="0" allow="pedestrian delivery bicycle" speed="5.56" length="76.89" shape="161.84,30.39 156.07,37.21 149.53,53.46 147.78,74.58 147.09,84.75 146.58,94.19 145.97,101.47 144.73,103.40"/>
    </edge>
    <edge id="1235549417#0" from="11469930750" to="5615942211" priority="1" type="highway.footway" spreadType="center">
        <lane id="1235549417#0_0" index="0" allow="pedestrian" speed="2.78" length="0.20" width="2.00" shape="77.41,108.07 77.31,107.90"/>
    </edge>
    <edge id="1235549417#1" from="5615942211" to="5615942210" priority="1" type="highway.footway" spreadType="center" shape="76.16,105.95 74.81,104.02 72.83,102.12 70.68,99.79">
        <lane id="1235549417#1_0" index="0" allow="pedestrian" speed="2.78" length="0.20" width="2.00" shape="73.59,102.86 73.45,102.72"/>
    </edge>
    <edge id="1235549417#2" from="5615942210" to="11469930747" priority="1" type="highway.footway" spreadType="center">
        <lane id="1235549417#2_0" index="0" allow="pedestrian" speed="2.78" length="0.20" width="2.00" shape="68.44,96.35 68.33,96.18"/>
    </edge>
    <edge id="1235549418" from="11469930750" to="11469930762" priority="1" type="highway.footway" spreadType="center" shape="77.55,108.31 78.70,110.70 74.99,112.49 72.07,115.56 69.50,120.29 54.92,153.78 12.59,250.43 10.76,254.59">
        <lane id="1235549418_0" index="0" allow="pedestrian" speed="2.78" length="161.66" width="1.00" shape="78.12,109.49 78.70,110.70 74.99,112.49 72.07,115.56 69.50,120.29 54.92,153.78 12.59,250.43 10.76,254.59"/>
    </edge>
    <edge id="1235549419" from="11469930763" to="11469930747" priority="1" type="highway.footway" spreadType="center" shape="0.00,249.90 1.36,246.04 2.27,243.47 0.49,242.65 33.67,168.28 65.83,93.72 68.75,96.82">
        <lane id="1235549419_0" index="0" allow="pedestrian" speed="2.78" length="174.96" width="1.50" shape="0.00,249.90 1.36,246.04 2.27,243.47 0.49,242.65 33.67,168.28 65.83,93.72 68.25,96.30"/>
    </edge>
    <edge id="173096726" from="302314581" to="249527937" priority="11" type="highway.secondary" shape="65.80,114.87 24.70,207.96 19.91,219.58 5.69,252.46">
        <lane id="173096726_0" index="0" disallow="tram rail_urban rail rail_electric rail_fast ship container cable_car subway aircraft wheelchair scooter drone" speed="13.89" length="149.13" shape="66.86,116.43 26.17,208.59 21.39,220.20 7.16,253.09"/>
        <param key="ref" value="D 17"/>
    </edge>
    <edge id="173096728" from="16818181" to="249527872" priority="11" type="highway.secondary" spreadType="center" shape="104.07,-0.11 104.61,29.76 105.30,59.12 103.13,72.87 100.80,80.24">
        <lane id="173096728_0" index="0" disallow="tram rail_urban rail rail_electric rail_fast ship container cable_car subway aircraft wheelchair scooter drone" speed="13.89" length="76.62" shape="104.07,-0.11 104.61,29.76 105.30,59.12 103.13,72.87 102.09,76.16"/>
        <param key="ref" value="D 17"/>
    </edge>
    <edge id="23254322#0" from="302312115" to="11368035703" priority="3" type="highway.residential" shape="104.13,91.98 111.80,93.57 120.40,97.06 140.61,106.84">
        <lane id="23254322#0_0" index="0" disallow="tram rail_urban rail rail_electric rail_fast ship container cable_car subway aircraft wheelchair scooter drone" speed="8.33" length="31.01" shape="108.98,91.35 112.27,92.03 121.05,95.59 137.41,103.51"/>
    </edge>
    <edge id="23254322#1" from="11368035703" to="249691609" priority="3" type="highway.residential" shape="140.61,106.84 245.31,157.49 293.45,180.78 298.03,182.99">
        <lane id="23254322#1_0" index="0" disallow="tram rail_urban rail rail_electric rail_fast ship container cable_car subway aircraft wheelchair scooter drone" speed="8.33" length="169.75" shape="145.92,107.62 246.01,156.05 294.15,179.34 298.72,181.55"/>
    </edge>
    <edge id="27536455" from="302311916" to="302312108" priority="11" type="highway.secondary" spreadType="center" shape="97.99,102.16 93.17,104.50 89.27,105.08 83.97,104.23 80.30,102.38">
        <lane id="27536455_0" index="0" disallow="tram rail_urban rail rail_electric rail_fast ship container cable_car subway aircraft wheelchair scooter drone" speed="8.33" length="7.65" shape="91.17,104.79 89.27,105.08 83.97,104.23 83.65,104.07"/>
    </edge>
    <edge id="27536548" from="302312112" to="1839276538" priority="10" type="highway.tertiary" shape="78.84,78.04 76.22,75.31 69.15,71.16 61.30,70.98">
        <lane id="27536548_0" index="0" disallow="tram rail_urban rail rail_electric rail_fast ship container cable_car subway aircraft wheelchair scooter drone" speed="8.33" length="3.69" shape="74.51,76.16 71.33,74.30"/>
    </edge>
    <edge id="27536655" from="1839276538" to="1839276531" priority="5" type="highway.tertiary_link" spreadType="center" shape="61.30,70.98 74.37,64.26 79.92,60.40 86.41,54.51 91.52,46.79 98.51,34.73">
        <lane id="27536655_0" index="0" disallow="tram rail_urban rail rail_electric rail_fast ship container cable_car subway aircraft wheelchair scooter drone" speed="8.33" length="34.76" shape="70.92,66.03 74.37,64.26 79.92,60.40 86.41,54.51 91.52,46.79 94.58,41.51"/>
    </edge>
    <edge id="27536656#0" from="302312108" to="5615942211" priority="11" type="highway.secondary" spreadType="center">
        <lane id="27536656#0_0" index="0" disallow="tram rail_urban rail rail_electric rail_fast ship container cable_car subway aircraft wheelchair scooter drone" speed="13.89" length="0.20" shape="77.65,104.67 77.49,104.80"/>
        <param key="ref" value="D 17"/>
    </edge>
    <edge id="27536656#1" from="5615942211" to="302314581" priority="11" type="highway.secondary" spreadType="center">
        <lane id="27536656#1_0" index="0" disallow="tram rail_urban rail rail_electric rail_fast ship container cable_car subway aircraft wheelchair scooter drone" speed="13.89" length="0.20" shape="74.57,107.31 74.42,107.45"/>
        <param key="ref" value="D 17"/>
    </edge>
    <edge id="27536657#0" from="302314581" to="11469930746" priority="11" type="highway.secondary" spreadType="center">
        <lane id="27536657#0_0" index="0" disallow="tram rail_urban rail rail_electric rail_fast ship container cable_car subway aircraft wheelchair scooter drone" speed="13.89" length="1.35" shape="67.31,103.25 67.67,101.95"/>
        <lane id="27536657#0_1" index="1" disallow="tram rail_urban rail rail_electric rail_fast ship container cable_car subway aircraft wheelchair scooter drone" speed="13.89" length="1.35" shape="70.40,104.10 70.75,102.79"/>
        <param key="ref" value="D 17"/>
    </edge>
    <edge id="27536657#1" from="11469930746" to="5615942210" priority="11" type="highway.secondary" spreadType="center">
        <lane id="27536657#1_0" index="0" disallow="tram rail_urban rail rail_electric rail_fast ship container cable_car subway aircraft wheelchair scooter drone" speed="13.89" length="0.20" shape="67.83,101.30 67.94,101.13"/>
        <lane id="27536657#1_1" index="1" disallow="tram rail_urban rail rail_electric rail_fast ship container cable_car subway aircraft wheelchair scooter drone" speed="13.89" length="0.20" shape="70.53,103.01 70.64,102.84"/>
        <param key="ref" value="D 17"/>
    </edge>
    <edge id="27536657#2" from="5615942210" to="302312109" priority="11" type="highway.secondary" spreadType="center">
        <lane id="27536657#2_0" index="0" disallow="tram rail_urban rail rail_electric rail_fast ship container cable_car subway aircraft wheelchair scooter drone" speed="13.89" length="0.20" shape="70.64,96.65 70.74,96.48"/>