<?xml version="1.0" encoding="UTF-8"?>

<!-- generated on 2024-09-03 01:37:04 by Eclipse SUMO netconvert Version 1.20.0
<configuration xmlns:xsi="http://www.w3.org/2001/XMLSchema-instance" xsi:noNamespaceSchemaLocation="http://sumo.dlr.de/xsd/netconvertConfiguration.xsd">

    <input>
        <osm-files value="train_files/roundabout/easy/osm_files/map(9).osm"/>
    </input>

    <output>
        <output-file value="train_files/roundabout/easy/outputs/map(9)_dict/map(9)/map(9).net.xml"/>
    </output>

    <projection>
        <proj.utm value="true"/>
    </projection>

    <building_defaults>
        <default.junctions.keep-clear value="false"/>
    </building_defaults>

</configuration>
-->

<net version="1.20" junctionCornerDetail="5" limitTurnSpeed="5.50" xmlns:xsi="http://www.w3.org/2001/XMLSchema-instance" xsi:noNamespaceSchemaLocation="http://sumo.dlr.de/xsd/net_file.xsd">

    <location netOffset="-444834.98,-5407976.25" convBoundary="0.00,0.00,193.15,206.18" origBoundary="2.248445,48.822327,2.251067,48.824186" projParameter="+proj=utm +zone=31 +ellps=WGS84 +datum=WGS84 +units=m +no_defs"/>

    <type id="highway.cycleway" priority="1" numLanes="1" speed="5.56" allow="bicycle" oneway="0" width="2.00"/>
    <type id="highway.footway" priority="1" numLanes="1" speed="2.78" allow="pedestrian" oneway="1" width="2.00"/>
    <type id="highway.primary" priority="12" numLanes="2" speed="27.78" disallow="tram rail_urban rail rail_electric rail_fast ship container cable_car subway aircraft wheelchair scooter drone" oneway="0"/>
    <type id="highway.residential" priority="3" numLanes="1" speed="13.89" disallow="tram rail_urban rail rail_electric rail_fast ship container cable_car subway aircraft wheelchair scooter drone" oneway="0"/>
    <type id="highway.steps" priority="1" numLanes="1" speed="1.39" allow="pedestrian" oneway="1" width="2.00"/>

    <edge id=":11579409032_0" function="internal">
        <lane id=":11579409032_0_0" index="0" allow="pedestrian bicycle" speed="2.89" length="2.92" width="2.00" shape="80.59,23.98 81.30,23.42 81.85,23.34 82.25,23.73 82.49,24.60"/>
    </edge>
    <edge id=":1534084675_0" function="internal">
        <lane id=":1534084675_0_0" index="0" disallow="tram rail_urban rail rail_electric rail_fast ship container cable_car subway aircraft wheelchair scooter drone" speed="13.89" length="0.81" shape="95.11,73.17 95.23,72.37"/>
        <lane id=":1534084675_0_1" index="1" disallow="tram rail_urban rail rail_electric rail_fast ship container cable_car subway aircraft wheelchair scooter drone" speed="13.89" length="0.81" shape="91.95,72.69 92.07,71.89"/>
        <lane id=":1534084675_0_2" index="2" disallow="tram rail_urban rail rail_electric rail_fast ship container cable_car subway aircraft wheelchair scooter drone" speed="13.89" length="0.81" shape="88.79,72.21 88.91,71.41"/>
    </edge>
    <edge id=":1534084677_0" function="internal">
        <lane id=":1534084677_0_0" index="0" disallow="tram rail_urban rail rail_electric rail_fast ship container cable_car subway aircraft wheelchair scooter drone" speed="8.33" length="0.30" shape="51.81,87.73 51.53,87.64"/>
    </edge>
    <edge id=":1534084677_1" function="internal">
        <lane id=":1534084677_1_0" index="0" disallow="tram rail_urban rail rail_electric rail_fast ship container cable_car subway aircraft wheelchair scooter drone" speed="8.33" length="0.30" shape="52.51,84.59 52.79,84.68"/>
    </edge>
    <edge id=":1534084678_0" function="internal">
        <lane id=":1534084678_0_0" index="0" disallow="tram rail_urban rail rail_electric rail_fast ship container cable_car subway aircraft wheelchair scooter drone" speed="8.33" length="3.92" shape="57.18,89.46 53.44,88.25"/>
    </edge>
    <edge id=":1534084678_1" function="internal">
        <lane id=":1534084678_1_0" index="0" disallow="tram rail_urban rail rail_electric rail_fast ship container cable_car subway aircraft wheelchair scooter drone" speed="8.33" length="3.93" shape="54.43,85.21 58.16,86.41"/>
    </edge>
    <edge id=":1592301574_0" function="internal">
        <lane id=":1592301574_0_0" index="0" allow="bicycle" speed="9.42" length="9.69" width="2.00" shape="53.36,116.38 55.52,114.80 57.16,113.00 58.27,111.00 58.86,108.78"/>
    </edge>
    <edge id=":1592301574_1" function="internal">
        <lane id=":1592301574_1_0" index="0" disallow="tram rail_urban rail rail_electric rail_fast ship container cable_car subway aircraft wheelchair scooter drone" speed="13.89" length="8.02" shape="56.79,116.38 57.36,114.09 58.12,112.62 58.88,111.15 59.45,108.87"/>
        <lane id=":1592301574_1_1" index="1" disallow="tram rail_urban rail rail_electric rail_fast ship container cable_car subway aircraft wheelchair scooter drone" speed="13.89" length="8.02" shape="59.96,116.82 60.53,114.54 61.29,113.07 62.05,111.59 62.62,109.31"/>
    </edge>
    <edge id=":1592301594_0" function="internal">
        <lane id=":1592301594_0_0" index="0" disallow="tram rail_urban rail rail_electric rail_fast ship container cable_car subway aircraft wheelchair scooter drone" speed="13.89" length="5.63" shape="80.60,115.91 80.00,117.43 79.95,118.61 79.89,119.79 79.30,121.31"/>
        <lane id=":1592301594_0_1" index="1" disallow="tram rail_urban rail rail_electric rail_fast ship container cable_car subway aircraft wheelchair scooter drone" speed="13.89" length="5.63" shape="77.84,114.30 77.24,115.81 77.18,117.00 77.13,118.18 76.53,119.70"/>
        <lane id=":1592301594_0_2" index="2" disallow="tram rail_urban rail rail_electric rail_fast ship container cable_car subway aircraft wheelchair scooter drone" speed="13.89" length="5.63" shape="77.84,114.30 76.81,115.56 75.80,116.19 74.80,116.82 73.77,118.08"/>
    </edge>
    <edge id=":1615612269_0" function="internal">
        <lane id=":1615612269_0_0" index="0" allow="bicycle" speed="9.72" length="9.34" width="2.00" shape="98.53,73.17 96.33,74.89 94.68,76.67 93.57,78.51 93.01,80.40"/>
    </edge>
    <edge id=":1615612269_1" function="internal">
        <lane id=":1615612269_1_0" index="0" disallow="tram rail_urban rail rail_electric rail_fast ship container cable_car subway aircraft wheelchair scooter drone" speed="13.89" length="8.28" shape="95.20,72.56 94.60,74.92 93.81,76.44 93.02,77.95 92.41,80.31"/>
        <lane id=":1615612269_1_1" index="1" disallow="tram rail_urban rail rail_electric rail_fast ship container cable_car subway aircraft wheelchair scooter drone" speed="13.89" length="8.28" shape="92.04,72.09 91.43,74.44 90.65,75.96 89.86,77.48 89.25,79.83"/>
    </edge>
    <edge id=":185722364_0" function="internal">
        <lane id=":185722364_0_0" index="0" disallow="tram rail_urban rail rail_electric rail_fast ship container cable_car subway aircraft wheelchair scooter drone" speed="13.89" length="11.39" shape="86.81,105.57 84.68,108.16 83.53,110.15 82.55,112.28 80.97,115.28"/>
        <lane id=":185722364_0_1" index="1" disallow="tram rail_urban rail rail_electric rail_fast ship container cable_car subway aircraft wheelchair scooter drone" speed="13.89" length="11.92" shape="86.81,105.57 84.20,107.95 82.13,109.33 80.25,110.86 78.21,113.66"/>
    </edge>
    <edge id=":185722364_2" function="internal">
        <lane id=":185722364_2_0" index="0" disallow="tram rail_urban rail rail_electric rail_fast ship container cable_car subway aircraft wheelchair scooter drone" speed="10.35" length="12.19" shape="86.81,105.57 84.29,107.80 81.52,109.28 78.50,110.00 75.25,109.96"/>
        <lane id=":185722364_2_1" index="1" disallow="tram rail_urban rail rail_electric rail_fast ship container cable_car subway aircraft wheelchair scooter drone" speed="9.81" length="12.19" shape="84.23,103.65 82.26,105.24 79.82,106.25 76.90,106.68 73.52,106.52"/>
    </edge>
    <edge id=":185722366_0" function="internal">
        <lane id=":185722366_0_0" index="0" disallow="tram rail_urban rail rail_electric rail_fast ship container cable_car subway aircraft wheelchair scooter drone" speed="7.50" length="8.20" shape="94.56,103.96 92.26,103.48 90.22,103.56 88.45,104.21 86.95,105.42"/>
    </edge>
    <edge id=":185722366_1" function="internal">
        <lane id=":185722366_1_0" index="0" disallow="tram rail_urban rail rail_electric rail_fast ship container cable_car subway aircraft wheelchair scooter drone" speed="7.52" length="8.49" shape="91.20,94.16 91.70,96.68 92.59,98.64 93.86,100.05 95.52,100.91"/>
    </edge>
    <edge id=":185722366_2" function="internal">
        <lane id=":185722366_2_0" index="0" disallow="tram rail_urban rail rail_electric rail_fast ship container cable_car subway aircraft wheelchair scooter drone" speed="10.94" length="11.74" shape="91.20,94.16 91.18,97.09 90.46,99.94 89.05,102.72 86.95,105.42"/>
        <lane id=":185722366_2_1" index="1" disallow="tram rail_urban rail rail_electric rail_fast ship container cable_car subway aircraft wheelchair scooter drone" speed="10.36" length="11.74" shape="87.89,93.37 87.90,96.11 87.32,98.71 86.14,101.18 84.36,103.51"/>
    </edge>
    <edge id=":185722367_0" function="internal">
        <lane id=":185722367_0_0" index="0" disallow="tram rail_urban rail rail_electric rail_fast ship container cable_car subway aircraft wheelchair scooter drone" speed="13.89" length="11.68" shape="92.22,81.57 91.60,84.86 91.08,87.12 90.84,89.39 91.03,92.70"/>
        <lane id=":185722367_0_1" index="1" disallow="tram rail_urban rail rail_electric rail_fast ship container cable_car subway aircraft wheelchair scooter drone" speed="13.89" length="11.68" shape="89.06,81.09 88.40,84.62 87.87,87.06 87.64,89.50 87.85,93.05"/>
    </edge>
    <edge id=":185722367_2" function="internal">
        <lane id=":185722367_2_0" index="0" disallow="tram rail_urban rail rail_electric rail_fast ship container cable_car subway aircraft wheelchair scooter drone" speed="12.04" length="12.21" shape="84.65,82.23 87.53,84.67 89.35,86.66 90.41,89.05 91.03,92.70"/>
        <lane id=":185722367_2_1" index="1" disallow="tram rail_urban rail rail_electric rail_fast ship container cable_car subway aircraft wheelchair scooter drone" speed="8.74" length="12.21" shape="81.65,84.00 84.06,85.22 85.90,87.13 87.16,89.74 87.85,93.05"/>
    </edge>
    <edge id=":185722368_0" function="internal">
        <lane id=":185722368_0_0" index="0" disallow="tram rail_urban rail rail_electric rail_fast ship container cable_car subway aircraft wheelchair scooter drone" speed="13.89" length="10.62" shape="65.13,83.89 67.15,81.53 68.15,79.64 68.90,77.56 70.13,74.64"/>
        <lane id=":185722368_0_1" index="1" disallow="tram rail_urban rail rail_electric rail_fast ship container cable_car subway aircraft wheelchair scooter drone" speed="13.89" length="11.27" shape="65.13,83.89 67.67,81.70 69.63,80.36 71.30,78.82 73.01,76.04"/>
    </edge>
    <edge id=":185722368_2" function="internal">
        <lane id=":185722368_2_0" index="0" disallow="tram rail_urban rail rail_electric rail_fast ship container cable_car subway aircraft wheelchair scooter drone" speed="12.33" length="11.43" shape="65.13,83.89 67.74,81.52 69.91,80.32 72.40,79.81 75.98,79.52"/>
        <lane id=":185722368_2_1" index="1" disallow="tram rail_urban rail rail_electric rail_fast ship container cable_car subway aircraft wheelchair scooter drone" speed="8.64" length="11.43" shape="67.71,85.83 70.09,83.84 72.49,82.64 74.91,82.23 77.36,82.63"/>
    </edge>
    <edge id=":243828952_0" function="internal">
        <lane id=":243828952_0_0" index="0" disallow="tram rail_urban rail rail_electric rail_fast ship container cable_car subway aircraft wheelchair scooter drone" speed="3.65" length="4.67" shape="-0.49,70.85 -1.39,69.72 -1.52,68.84 -0.90,68.20 0.49,67.81"/>
    </edge>
    <edge id=":330250213_0" function="internal">
        <lane id=":330250213_0_0" index="0" disallow="tram rail_urban rail rail_electric rail_fast ship container cable_car subway aircraft wheelchair scooter drone" speed="3.65" length="4.67" shape="159.11,120.83 160.04,121.94 160.19,122.82 159.58,123.47 158.20,123.90"/>
    </edge>
    <edge id=":330253990_0" function="internal">
        <lane id=":330253990_0_0" index="0" disallow="tram rail_urban rail rail_electric rail_fast ship container cable_car subway aircraft wheelchair scooter drone" speed="9.83" length="11.87" shape="67.17,107.35 64.69,105.68 62.81,103.43 61.53,100.62 60.85,97.24"/>
        <lane id=":330253990_0_1" index="1" disallow="tram rail_urban rail rail_electric rail_fast ship container cable_car subway aircraft wheelchair scooter drone" speed="9.37" length="11.87" shape="70.59,105.48 67.93,103.82 65.96,101.84 64.66,99.54 64.03,96.91"/>
    </edge>
    <edge id=":330253990_2" function="internal">
        <lane id=":330253990_2_0" index="0" disallow="tram rail_urban rail rail_electric rail_fast ship container cable_car subway aircraft wheelchair scooter drone" speed="13.89" length="11.24" shape="59.58,107.96 60.18,104.78 60.71,102.61 60.99,100.43 60.85,97.24"/>
        <lane id=":330253990_2_1" index="1" disallow="tram rail_urban rail rail_electric rail_fast ship container cable_car subway aircraft wheelchair scooter drone" speed="13.89" length="11.24" shape="62.75,108.40 63.38,105.00 63.92,102.67 64.20,100.33 64.03,96.91"/>
    </edge>
    <edge id=":3880017113_0" function="internal">
        <lane id=":3880017113_0_0" index="0" allow="pedestrian bicycle" speed="4.96" length="10.22" width="2.00" shape="75.80,52.43 75.47,56.09 75.84,57.46 76.91,56.52 78.69,53.27"/>
    </edge>
    <edge id=":3880017113_1" function="internal">
        <lane id=":3880017113_1_0" index="0" allow="pedestrian bicycle" speed="2.89" length="2.44" width="2.00" shape="75.80,52.43 75.28,53.18 74.77,53.42 74.27,53.16 74.05,52.82"/>
    </edge>
    <edge id=":3880017113_6" function="internal">
        <lane id=":3880017113_6_0" index="0" allow="pedestrian bicycle" speed="2.89" length="0.50" width="2.00" shape="74.05,52.82 73.78,52.40"/>
    </edge>
    <edge id=":3880017113_2" function="internal">
        <lane id=":3880017113_2_0" index="0" allow="pedestrian bicycle" speed="9.72" length="20.83" width="2.00" shape="71.01,72.83 73.18,66.54 73.77,61.10 73.67,56.41 73.78,52.40"/>
    </edge>
    <edge id=":3880017113_3" function="internal">
        <lane id=":3880017113_3_0" index="0" disallow="tram rail_urban rail rail_electric rail_fast ship container cable_car subway aircraft wheelchair scooter drone" speed="13.89" length="21.02" shape="71.01,72.83 78.69,53.27"/>
        <lane id=":3880017113_3_1" index="1" disallow="tram rail_urban rail rail_electric rail_fast ship container cable_car subway aircraft wheelchair scooter drone" speed="13.89" length="21.02" shape="73.89,74.23 81.57,54.67"/>
        <lane id=":3880017113_3_2" index="2" disallow="tram rail_urban rail rail_electric rail_fast ship container cable_car subway aircraft wheelchair scooter drone" speed="13.89" length="21.02" shape="73.89,74.23 84.45,56.06"/>
    </edge>
    <edge id=":4592515322_0" function="internal">
        <lane id=":4592515322_0_0" index="0" disallow="tram rail_urban rail rail_electric rail_fast ship container cable_car subway aircraft wheelchair scooter drone" speed="13.89" length="1.50" shape="56.97,115.10 56.76,116.58"/>
        <lane id=":4592515322_0_1" index="1" disallow="tram rail_urban rail rail_electric rail_fast ship container cable_car subway aircraft wheelchair scooter drone" speed="13.89" length="1.50" shape="60.14,115.53 59.93,117.02"/>
        <lane id=":4592515322_0_2" index="2" disallow="tram rail_urban rail rail_electric rail_fast ship container cable_car subway aircraft wheelchair scooter drone" speed="13.89" length="1.50" shape="63.31,115.97 63.10,117.46"/>
    </edge>
    <edge id=":4592515323_0" function="internal">
        <lane id=":4592515323_0_0" index="0" disallow="tram rail_urban rail rail_electric rail_fast ship container cable_car subway aircraft wheelchair scooter drone" speed="8.33" length="0.30" shape="101.34,106.10 101.05,106.01"/>
    </edge>
    <edge id=":4592515323_1" function="internal">
        <lane id=":4592515323_1_0" index="0" disallow="tram rail_urban rail rail_electric rail_fast ship container cable_car subway aircraft wheelchair scooter drone" speed="8.33" length="0.30" shape="102.02,102.95 102.30,103.04"/>
    </edge>
    <edge id=":51243841_0" function="internal">
        <lane id=":51243841_0_0" index="0" disallow="tram rail_urban rail rail_electric rail_fast ship container cable_car subway aircraft wheelchair scooter drone" speed="7.28" length="7.44" shape="58.35,86.47 59.97,86.71 61.61,86.38 63.28,85.49 64.99,84.03"/>
    </edge>
    <edge id=":51243841_1" function="internal">
        <lane id=":51243841_1_0" index="0" disallow="tram rail_urban rail rail_electric rail_fast ship container cable_car subway aircraft wheelchair scooter drone" speed="5.51" length="5.73" shape="60.56,93.58 60.59,92.26 60.07,91.15 59.00,90.24 57.37,89.52"/>
    </edge>
    <edge id=":51243841_2" function="internal">
        <lane id=":51243841_2_0" index="0" disallow="tram rail_urban rail rail_electric rail_fast ship container cable_car subway aircraft wheelchair scooter drone" speed="13.89" length="10.08" shape="60.56,93.58 61.21,90.44 61.81,88.28 62.89,86.38 64.99,84.03"/>
        <lane id=":51243841_2_1" index="1" disallow="tram rail_urban rail rail_electric rail_fast ship container cable_car subway aircraft wheelchair scooter drone" speed="13.22" length="10.08" shape="63.69,94.26 64.25,91.54 64.79,89.66 65.74,88.01 67.57,85.97"/>
    </edge>
    <edge id=":7266252323_0" function="internal">
        <lane id=":7266252323_0_0" index="0" disallow="tram rail_urban rail rail_electric rail_fast ship container cable_car subway aircraft wheelchair scooter drone" speed="13.89" length="2.82" shape="60.83,97.04 60.66,96.07 60.48,95.40 60.39,94.73 60.52,93.77"/>
        <lane id=":7266252323_0_1" index="1" disallow="tram rail_urban rail rail_electric rail_fast ship container cable_car subway aircraft wheelchair scooter drone" speed="13.89" length="2.82" shape="64.01,96.71 63.87,96.04 63.69,95.58 63.58,95.12 63.64,94.46"/>
    </edge>

    <edge id="-1245588068" from="11579409032" to="3880017113" priority="1" type="highway.cycleway" shape="81.54,24.29 79.32,31.06 74.85,51.96 73.56,61.11 73.41,71.53">
        <lane id="-1245588068_0" index="0" allow="pedestrian bicycle" speed="5.56" length="28.65" width="2.00" shape="82.49,24.60 80.29,31.32 75.84,52.14 75.80,52.43"/>
    </edge>
    <edge id="-29999174#0" from="4592515323" to="185722366" priority="3" type="highway.residential" shape="101.68,104.52 99.12,103.72 88.56,100.40">
        <lane id="-29999174#0_0" index="0" disallow="tram rail_urban rail rail_electric rail_fast ship container cable_car subway aircraft wheelchair scooter drone" speed="8.33" length="6.81" shape="101.05,106.01 98.64,105.24 94.56,103.96"/>
    </edge>
    <edge id="-29999174#1" from="330250213" to="4592515323" priority="3" type="highway.residential" shape="158.66,122.36 152.64,120.58 104.35,105.37 101.68,104.52">
        <lane id="-29999174#1_0" index="0" disallow="tram rail_urban rail rail_electric rail_fast ship container cable_car subway aircraft wheelchair scooter drone" speed="8.33" length="59.58" shape="158.20,123.90 152.17,122.11 103.87,106.89 101.34,106.10"/>
    </edge>
    <edge id="-6171641#0" from="1534084678" to="51243841" priority="3" type="highway.residential">
        <lane id="-6171641#0_0" index="0" disallow="tram rail_urban rail rail_electric rail_fast ship container cable_car subway aircraft wheelchair scooter drone" speed="8.33" length="0.20" shape="58.16,86.41 58.35,86.47"/>
    </edge>
    <edge id="-6171641#1" from="1534084677" to="1534084678" priority="3" type="highway.residential">
        <lane id="-6171641#1_0" index="0" disallow="tram rail_urban rail rail_electric rail_fast ship container cable_car subway aircraft wheelchair scooter drone" speed="8.33" length="1.71" shape="52.79,84.68 54.43,85.21"/>
    </edge>
    <edge id="-6171641#2" from="243828952" to="1534084677" priority="3" type="highway.residential" shape="0.00,69.33 49.27,85.23 52.16,86.16">
        <lane id="-6171641#2_0" index="0" disallow="tram rail_urban rail rail_electric rail_fast ship container cable_car subway aircraft wheelchair scooter drone" speed="8.33" length="54.66" shape="0.49,67.81 49.77,83.71 52.51,84.59"/>
    </edge>
    <edge id="1013842410" from="185722366" to="185722364" priority="12" type="highway.primary" spreadType="center" shape="88.56,100.40 87.07,102.92 85.08,105.09">
        <lane id="1013842410_0" index="0" disallow="tram rail_urban rail rail_electric rail_fast ship container cable_car subway aircraft wheelchair scooter drone" speed="13.89" length="0.20" shape="86.95,105.42 86.81,105.57"/>
        <lane id="1013842410_1" index="1" disallow="tram rail_urban rail rail_electric rail_fast ship container cable_car subway aircraft wheelchair scooter drone" speed="13.89" length="0.20" shape="84.36,103.51 84.23,103.65"/>
    </edge>
    <edge id="1063561709" from="10165128325" to="10115853456" priority="1" type="highway.steps" spreadType="center">
        <lane id="1063561709_0" index="0" allow="pedestrian" speed="1.39" length="9.03" width="2.00" shape="44.11,107.82 50.26,101.21"/>
    </edge>
    <edge id="1100596493" from="9769316452" to="10165128325" priority="1" type="highway.footway" spreadType="center">
        <lane id="1100596493_0" index="0" allow="pedestrian" speed="2.78" length="12.35" width="2.00" shape="32.10,112.28 43.71,108.08"/>
    </edge>
    <edge id="1105490859" from="10116317745" to="10116317750" priority="1" type="highway.footway" spreadType="center" shape="156.92,206.18 135.04,194.02 126.30,189.13 120.41,179.09 104.93,148.01 103.06,144.24 98.66,133.87 94.94,125.08 91.90,119.02">
        <lane id="1105490859_0" index="0" allow="pedestrian" speed="2.78" length="110.68" width="2.00" shape="156.92,206.18 135.04,194.02 126.30,189.13 120.41,179.09 104.93,148.01 103.06,144.24 98.66,133.87 94.94,125.08 93.04,121.28"/>
    </edge>
    <edge id="1105490861" from="10115853456" to="7266252323" priority="1" type="highway.footway" spreadType="center">
        <lane id="1105490861_0" index="0" allow="pedestrian" speed="2.78" length="1.39" width="2.00" shape="56.13,96.91 57.38,96.30"/>
    </edge>
    <edge id="1105499407" from="10116379398" to="10116379401" priority="1" type="highway.footway" spreadType="center" shape="160.72,61.46 163.92,53.43 130.33,69.55 127.21,74.66 117.42,79.65 103.92,84.41">
        <lane id="1105499407_0" index="0" allow="pedestrian" speed="2.78" length="74.61" width="2.00" shape="160.72,61.46 163.92,53.43 130.33,69.55 127.21,74.66 117.42,79.65 106.35,83.55"/>
    </edge>
    <edge id="1245588068" from="3880017113" to="11579409032" priority="1" type="highway.cycleway" shape="73.41,71.53 73.56,61.11 74.85,51.96 79.32,31.06 81.54,24.29">
        <lane id="1245588068_0" index="0" allow="pedestrian bicycle" speed="5.56" length="29.25" width="2.00" shape="73.78,52.40 73.87,51.79 78.35,30.80 80.59,23.98"/>
    </edge>
    <edge id="132760933" from="185722364" to="330253990" priority="12" type="highway.primary" spreadType="center" shape="85.08,105.09 81.11,107.53 76.55,108.51 71.92,107.93 67.75,105.85 64.51,102.51 62.56,98.28">
        <lane id="132760933_0" index="0" disallow="tram rail_urban rail rail_electric rail_fast ship container cable_car subway aircraft wheelchair scooter drone" speed="13.89" length="5.88" shape="75.25,109.96 71.45,109.48 67.17,107.35"/>
        <lane id="132760933_1" index="1" disallow="tram rail_urban rail rail_electric rail_fast ship container cable_car subway aircraft wheelchair scooter drone" speed="13.89" length="5.88" shape="73.52,106.52 72.39,106.38 70.59,105.48"/>
    </edge>
    <edge id="144867070#0" from="319887775" to="10116379401" priority="1" type="highway.footway" spreadType="center" shape="193.15,133.18 187.78,119.23 186.14,118.77 175.46,115.83 162.11,111.93 109.09,96.04 103.92,84.41">
        <lane id="144867070#0_0" index="0" allow="pedestrian" speed="2.78" length="104.81" width="2.00" shape="192.32,131.01 187.78,119.23 186.14,118.77 175.46,115.83 162.11,111.93 109.09,96.04 104.97,86.77"/>
    </edge>
    <edge id="144867070#1" from="10116379401" to="2523782452" priority="1" type="highway.footway" spreadType="center" shape="103.92,84.41 101.55,79.09 121.57,17.86">
        <lane id="144867070#1_0" index="0" allow="pedestrian" speed="2.78" length="67.83" width="2.00" shape="102.93,82.20 101.55,79.09 121.57,17.86"/>
    </edge>
    <edge id="144867071#0" from="1534084678" to="10115853456" priority="1" type="highway.footway" spreadType="center">
        <lane id="144867071#0_0" index="0" allow="pedestrian" speed="2.78" length="3.13" width="2.00" shape="54.86,91.98 53.87,94.95"/>
    </edge>
    <edge id="144867071#1" from="10115853456" to="1592301574" priority="1" type="highway.footway" spreadType="center" shape="52.64,98.65 54.78,110.41 60.64,111.93">
        <lane id="144867071#1_0" index="0" allow="pedestrian" speed="2.78" length="9.68" width="2.00" shape="53.26,102.09 54.78,110.41 55.96,110.72"/>
    </edge>
    <edge id="17938513" from="3880017113" to="51244112" priority="12" type="highway.primary" spreadType="center" shape="73.41,71.53 84.53,48.54 91.81,24.81">
        <lane id="17938513_0" index="0" disallow="tram rail_urban rail rail_electric rail_fast ship container cable_car subway aircraft wheelchair scooter drone" speed="13.89" length="31.62" shape="78.69,53.27 81.54,47.37 88.75,23.87"/>
        <lane id="17938513_1" index="1" disallow="tram rail_urban rail rail_electric rail_fast ship container cable_car subway aircraft wheelchair scooter drone" speed="13.89" length="31.62" shape="81.57,54.67 84.53,48.54 91.81,24.81"/>
        <lane id="17938513_2" index="2" disallow="tram rail_urban rail rail_electric rail_fast ship container cable_car subway aircraft wheelchair scooter drone" speed="13.89" length="31.62" shape="84.45,56.06 87.52,49.71 94.87,25.75"/>
        <param key="ref" value="D 2"/>
    </edge>
    <edge id="229749598" from="1592301574" to="330253990" priority="12" type="highway.primary" spreadType="center">
        <lane id="229749598_0" index="0" disallow="tram rail_urban rail rail_electric rail_fast ship container cable_car subway aircraft wheelchair scooter drone" speed="13.89" length="0.92" shape="59.45,108.87 59.58,107.96"/>
        <lane id="229749598_1" index="1" disallow="tram rail_urban rail rail_electric rail_fast ship container cable_car subway aircraft wheelchair scooter drone" speed="13.89" length="0.92" shape="62.62,109.31 62.75,108.40"/>
    </edge>
    <edge id="229749652#0" from="319887775" to="10116317750" priority="1" type="highway.footway" spreadType="center" shape="193.15,133.18 180.70,140.94 179.10,141.36 169.03,138.00 155.27,133.51 100.37,115.11 91.90,119.02">
        <lane id="229749652#0_0" index="0" allow="pedestrian" speed="2.78" length="103.78" width="2.00" shape="191.18,134.41 180.70,140.94 179.10,141.36 169.03,138.00 155.27,133.51 100.37,115.11 94.20,117.96"/>
    </edge>
    <edge id="229749652#1" from="10116317750" to="1592301594" priority="1" type="highway.footway" spreadType="center" shape="91.90,119.02 86.45,121.53 77.80,117.53">
        <lane id="229749652#1_0" index="0" allow="pedestrian" speed="2.78" length="6.84" width="2.00" shape="89.66,120.05 86.45,121.53 83.45,120.14"/>
    </edge>
    <edge id="229749652#2" from="1592301594" to="1592301574" priority="1" type="highway.footway" spreadType="center" shape="77.80,117.53 69.54,112.72 60.64,111.93">
        <lane id="229749652#2_0" index="0" allow="pedestrian" speed="2.78" length="5.94" width="2.00" shape="72.35,114.36 69.54,112.72 66.87,112.49"/>
    </edge>
    <edge id="25745094#0" from="6572722347" to="1534084675" priority="12" type="highway.primary" spreadType="center" shape="113.12,0.00 108.35,14.73 94.57,55.36 92.13,71.48 91.93,72.84">
        <lane id="25745094#0_0" index="0" disallow="tram rail_urban rail rail_electric rail_fast ship container cable_car subway aircraft wheelchair scooter drone" speed="13.89" length="75.91" shape="116.17,0.99 111.39,15.74 97.69,56.12 95.30,71.96 95.11,73.17"/>
        <lane id="25745094#0_1" index="1" disallow="tram rail_urban rail rail_electric rail_fast ship container cable_car subway aircraft wheelchair scooter drone" speed="13.89" length="75.91" shape="113.12,0.00 108.35,14.73 94.57,55.36 92.13,71.48 91.95,72.69"/>
        <lane id="25745094#0_2" index="2" disallow="tram rail_urban rail rail_electric rail_fast ship container cable_car subway aircraft wheelchair scooter drone" speed="13.89" length="75.91" shape="110.08,-0.99 105.31,13.73 91.45,54.60 88.97,71.00 88.79,72.21"/>
        <param key="ref" value="D 2"/>
    </edge>
    <edge id="25745094#1" from="1534084675" to="1615612269" priority="12" type="highway.primary" spreadType="center">
        <lane id="25745094#1_0" index="0" disallow="tram rail_urban rail rail_electric rail_fast ship container cable_car subway aircraft wheelchair scooter drone" speed="13.89" length="0.20" shape="95.23,72.37 95.20,72.56"/>
        <lane id="25745094#1_1" index="1" disallow="tram rail_urban rail rail_electric rail_fast ship container cable_car subway aircraft wheelchair scooter drone" speed="13.89" length="0.20" shape="92.07,71.89 92.04,72.09"/>
        <lane id="25745094#1_2" index="2" disallow="tram rail_urban rail rail_electric rail_fast ship container cable_car subway aircraft wheelchair scooter drone" speed="13.89" length="0.20" shape="88.91,71.41 88.88,71.61"/>
        <param key="ref" value="D 2"/>
    </edge>
    <edge id="29998993" from="1592301594" to="5316470605" priority="12" type="highway.primary" spreadType="center" shape="77.80,117.53 67.62,134.95 58.53,164.10">
        <lane id="29998993_0" index="0" disallow="tram rail_urban rail rail_electric rail_fast ship container cable_car subway aircraft wheelchair scooter drone" speed="13.89" length="48.20" shape="79.30,121.31 70.57,136.25 61.59,165.06"/>