<?xml version="1.0" encoding="UTF-8"?>

<!-- generated on 2024-09-03 01:37:05 by Eclipse SUMO netconvert Version 1.20.0
<configuration xmlns:xsi="http://www.w3.org/2001/XMLSchema-instance" xsi:noNamespaceSchemaLocation="http://sumo.dlr.de/xsd/netconvertConfiguration.xsd">

    <input>
        <osm-files value="train_files/roundabout/easy/osm_files/ra_2.osm"/>
    </input>

    <output>
        <output-file value="train_files/roundabout/easy/outputs/ra_2_dict/ra_2/ra_2.net.xml"/>
    </output>

    <projection>
        <proj.utm value="true"/>
    </projection>

    <building_defaults>
        <default.junctions.keep-clear value="false"/>
    </building_defaults>

</configuration>
-->

<net version="1.20" junctionCornerDetail="5" limitTurnSpeed="5.50" xmlns:xsi="http://www.w3.org/2001/XMLSchema-instance" xsi:noNamespaceSchemaLocation="http://sumo.dlr.de/xsd/net_file.xsd">

    <location netOffset="-435701.28,-5391528.07" convBoundary="0.00,0.00,804.72,1107.89" origBoundary="2.126430,48.673570,2.137532,48.683454" projParameter="+proj=utm +zone=31 +ellps=WGS84 +datum=WGS84 +units=m +no_defs"/>

    <type id="highway.cycleway" priority="1" numLanes="1" speed="5.56" allow="bicycle" oneway="0" width="2.00"/>
    <type id="highway.footway" priority="1" numLanes="1" speed="2.78" allow="pedestrian" oneway="1" width="2.00"/>
    <type id="highway.path" priority="1" numLanes="1" speed="5.56" allow="pedestrian bicycle" oneway="0" width="2.00"/>
    <type id="highway.residential" priority="3" numLanes="1" speed="13.89" disallow="tram rail_urban rail rail_electric rail_fast ship container cable_car subway aircraft wheelchair scooter drone" oneway="0"/>
    <type id="highway.secondary" priority="11" numLanes="1" speed="27.78" disallow="tram rail_urban rail rail_electric rail_fast ship container cable_car subway aircraft wheelchair scooter drone" oneway="0"/>
    <type id="highway.service" priority="1" numLanes="1" speed="5.56" allow="pedestrian delivery bicycle" oneway="0"/>
    <type id="highway.steps" priority="1" numLanes="1" speed="1.39" allow="pedestrian" oneway="1" width="2.00"/>
    <type id="highway.tertiary" priority="10" numLanes="1" speed="22.22" disallow="tram rail_urban rail rail_electric rail_fast ship container cable_car subway aircraft wheelchair scooter drone" oneway="0"/>

    <edge id=":1370447051_0" function="internal">
        <lane id=":1370447051_0_0" index="0" allow="bicycle" speed="5.56" length="2.26" width="1.00" shape="469.50,232.90 467.32,233.49"/>
    </edge>
    <edge id=":1370447051_1" function="internal">
        <lane id=":1370447051_1_0" index="0" allow="bicycle" speed="5.56" length="2.32" width="1.00" shape="467.32,233.49 468.22,231.36"/>
    </edge>
    <edge id=":1370447051_2" function="internal">
        <lane id=":1370447051_2_0" index="0" allow="pedestrian bicycle" speed="2.04" length="1.27" width="1.00" shape="466.97,233.14 467.41,233.05 467.68,233.14 467.76,233.40 467.71,233.66"/>
    </edge>
    <edge id=":1370447051_3" function="internal">
        <lane id=":1370447051_3_0" index="0" allow="pedestrian bicycle" speed="2.04" length="0.19" width="1.00" shape="467.71,233.66 467.67,233.85"/>
    </edge>
    <edge id=":1370447056_0" function="internal">
        <lane id=":1370447056_0_0" index="0" allow="pedestrian bicycle" speed="5.56" length="4.88" width="1.00" shape="454.15,260.66 454.13,259.21 454.19,258.22 454.35,257.24 454.67,255.83"/>
    </edge>
    <edge id=":1370447056_1" function="internal">
        <lane id=":1370447056_1_0" index="0" allow="pedestrian bicycle" speed="2.04" length="1.46" width="1.00" shape="454.15,260.66 454.39,260.28 454.64,260.15 454.89,260.27 455.15,260.64"/>
    </edge>
    <edge id=":1370447056_2" function="internal">
        <lane id=":1370447056_2_0" index="0" allow="pedestrian bicycle" speed="5.56" length="4.64" width="1.00" shape="455.64,256.05 455.34,257.39 455.19,258.33 455.13,259.27 455.15,260.64"/>
    </edge>
    <edge id=":1370447056_3" function="internal">
        <lane id=":1370447056_3_0" index="0" allow="pedestrian bicycle" speed="2.04" length="1.46" width="1.00" shape="455.64,256.05 455.31,256.36 455.04,256.43 454.83,256.25 454.67,255.83"/>
    </edge>
    <edge id=":1370447060_0" function="internal">
        <lane id=":1370447060_0_0" index="0" disallow="tram rail_urban rail rail_electric rail_fast ship container cable_car subway aircraft wheelchair scooter drone" speed="20.83" length="11.50" shape="450.46,306.49 451.18,309.92 451.96,312.29 452.97,314.46 454.35,317.25"/>
    </edge>
    <edge id=":1370447060_1" function="internal">
        <lane id=":1370447060_1_0" index="0" disallow="tram rail_urban rail rail_electric rail_fast ship container cable_car subway aircraft wheelchair scooter drone" speed="26.12" length="11.62" shape="450.46,306.49 450.79,309.96 450.43,312.35 449.68,314.73 448.83,318.19"/>
        <lane id=":1370447060_1_1" index="1" disallow="tram rail_urban rail rail_electric rail_fast ship container cable_car subway aircraft wheelchair scooter drone" speed="25.36" length="11.62" shape="447.30,307.05 447.59,310.31 447.20,312.55 446.43,314.79 445.60,318.04"/>
    </edge>
    <edge id=":1370447066_0" function="internal">
        <lane id=":1370447066_0_0" index="0" allow="bicycle" speed="4.24" length="4.13" width="1.00" shape="472.72,341.73 472.08,340.76 471.31,340.29 470.40,340.32 469.37,340.86"/>
    </edge>
    <edge id=":1370447066_1" function="internal">
        <lane id=":1370447066_1_0" index="0" allow="bicycle" speed="5.56" length="12.48" width="1.00" shape="472.72,341.73 471.51,338.62 470.82,335.83 470.29,332.98 469.55,329.70"/>
    </edge>
    <edge id=":1370447066_2" function="internal">
        <lane id=":1370447066_2_0" index="0" allow="bicycle" speed="2.89" length="2.92" width="2.00" shape="472.72,341.73 472.85,340.84 473.20,340.40 473.76,340.41 474.53,340.88"/>
    </edge>
    <edge id=":1370447066_3" function="internal">
        <lane id=":1370447066_3_0" index="0" allow="bicycle" speed="5.56" length="12.32" width="1.00" shape="469.53,329.65 470.56,332.80 471.72,335.38 473.03,337.90 474.53,340.88"/>
    </edge>
    <edge id=":1370447066_4" function="internal">
        <lane id=":1370447066_4_0" index="0" allow="pedestrian bicycle" speed="5.56" length="12.27" width="1.00" shape="470.02,329.52 470.97,333.87 471.22,337.27 470.79,339.74 469.66,341.27"/>
    </edge>
    <edge id=":1370447066_5" function="internal">
        <lane id=":1370447066_5_0" index="0" allow="pedestrian bicycle" speed="2.04" length="1.46" width="1.00" shape="470.02,329.52 469.89,329.95 469.69,330.15 469.42,330.11 469.06,329.83"/>
    </edge>
    <edge id=":1370447066_6" function="internal">
        <lane id=":1370447066_6_0" index="0" allow="pedestrian bicycle" speed="5.56" length="11.04" width="1.00" shape="469.08,340.45 469.97,339.15 470.27,336.94 469.96,333.84 469.06,329.83"/>
    </edge>
    <edge id=":1370447066_7" function="internal">
        <lane id=":1370447066_7_0" index="0" allow="bicycle" speed="5.18" length="6.90" width="1.00" shape="468.79,340.05 470.65,339.02 472.22,338.82 473.52,339.44 474.53,340.88"/>
    </edge>
    <edge id=":1370447066_8" function="internal">
        <lane id=":1370447066_8_0" index="0" allow="pedestrian bicycle" speed="2.04" length="1.46" width="1.00" shape="469.08,340.45 469.53,340.44 469.78,340.57 469.82,340.85 469.66,341.27"/>
    </edge>
    <edge id=":1370447069_0" function="internal">
        <lane id=":1370447069_0_0" index="0" allow="pedestrian bicycle" speed="4.78" length="4.73" width="1.00" shape="466.73,343.37 465.57,344.37 464.90,345.36 464.72,346.34 465.03,347.30"/>
    </edge>
    <edge id=":1370447069_1" function="internal">
        <lane id=":1370447069_1_0" index="0" allow="pedestrian bicycle" speed="5.56" length="6.69" width="1.00" shape="466.73,343.37 465.17,344.59 464.15,345.51 463.09,346.36 461.41,347.40"/>
    </edge>
    <edge id=":1370447069_2" function="internal">
        <lane id=":1370447069_2_0" index="0" allow="pedestrian bicycle" speed="2.04" length="1.46" width="1.00" shape="466.73,343.37 466.28,343.37 466.04,343.23 466.00,342.95 466.18,342.53"/>
    </edge>
    <edge id=":1370447069_3" function="internal">
        <lane id=":1370447069_3_0" index="0" allow="pedestrian bicycle" speed="4.39" length="4.37" width="1.00" shape="462.67,342.01 463.19,342.97 463.95,343.37 464.95,343.23 466.18,342.53"/>
    </edge>
    <edge id=":1370447069_4" function="internal">
        <lane id=":1370447069_4_0" index="0" disallow="tram rail_urban rail rail_electric rail_fast ship container cable_car subway aircraft wheelchair scooter drone" speed="13.89" length="5.81" shape="462.67,342.01 463.21,343.65 463.64,344.75 464.17,345.81 465.03,347.30"/>
    </edge>
    <edge id=":1370447069_5" function="internal">
        <lane id=":1370447069_5_0" index="0" allow="pedestrian bicycle" speed="5.83" length="6.04" width="1.00" shape="462.67,342.01 463.08,343.84 463.01,345.35 462.45,346.53 461.41,347.40"/>
    </edge>
    <edge id=":1370447069_6" function="internal">
        <lane id=":1370447069_6_0" index="0" allow="pedestrian bicycle" speed="5.56" length="6.84" width="1.00" shape="460.72,346.63 462.45,345.58 463.54,344.71 464.58,343.78 466.18,342.53"/>
    </edge>
    <edge id=":1370447069_7" function="internal">
        <lane id=":1370447069_7_0" index="0" allow="pedestrian bicycle" speed="4.74" length="4.92" width="1.00" shape="460.72,346.63 462.11,346.06 463.28,345.99 464.26,346.40 465.03,347.30"/>
    </edge>
    <edge id=":1370447069_8" function="internal">
        <lane id=":1370447069_8_0" index="0" allow="pedestrian bicycle" speed="2.06" length="1.50" width="1.00" shape="460.72,346.63 461.18,346.57 461.45,346.67 461.53,346.95 461.41,347.40"/>
    </edge>
    <edge id=":1370447078_0" function="internal">
        <lane id=":1370447078_0_0" index="0" disallow="tram rail_urban rail rail_electric rail_fast ship container cable_car subway aircraft wheelchair scooter drone" speed="20.83" length="12.33" shape="430.71,352.99 427.53,353.01 424.98,353.22 422.25,353.72 418.54,354.61"/>
    </edge>
    <edge id=":1370447078_1" function="internal">
        <lane id=":1370447078_1_0" index="0" disallow="tram rail_urban rail rail_electric rail_fast ship container cable_car subway aircraft wheelchair scooter drone" speed="20.00" length="12.63" shape="429.35,347.96 426.46,350.48 424.41,352.22 422.14,353.49 418.54,354.61"/>
        <lane id=":1370447078_1_1" index="1" disallow="tram rail_urban rail rail_electric rail_fast ship container cable_car subway aircraft wheelchair scooter drone" speed="19.60" length="12.63" shape="428.01,344.92 425.25,347.37 423.34,349.11 421.19,350.40 417.76,351.51"/>
    </edge>
    <edge id=":1370447079_0" function="internal">
        <lane id=":1370447079_0_0" index="0" allow="pedestrian bicycle" speed="5.16" length="4.56" width="1.00" shape="453.36,356.96 452.26,356.73 451.25,356.91 450.34,357.52 449.53,358.54"/>
    </edge>
    <edge id=":1370447079_1" function="internal">
        <lane id=":1370447079_1_0" index="0" disallow="tram rail_urban rail rail_electric rail_fast ship container cable_car subway aircraft wheelchair scooter drone" speed="13.89" length="5.86" shape="453.36,356.96 447.87,354.94"/>
    </edge>
    <edge id=":1370447079_2" function="internal">
        <lane id=":1370447079_2_0" index="0" allow="pedestrian bicycle" speed="4.77" length="5.26" width="1.00" shape="453.36,356.96 452.07,356.23 451.45,355.30 451.50,354.16 452.24,352.83"/>
    </edge>
    <edge id=":1370447079_3" function="internal">
        <lane id=":1370447079_3_0" index="0" allow="pedestrian bicycle" speed="5.56" length="6.21" width="1.00" shape="453.04,353.43 451.94,354.90 451.20,355.93 450.50,356.98 449.53,358.54"/>
    </edge>
    <edge id=":1370447079_4" function="internal">
        <lane id=":1370447079_4_0" index="0" allow="pedestrian bicycle" speed="5.77" length="5.81" width="1.00" shape="453.04,353.43 451.98,354.51 450.76,355.12 449.39,355.26 447.87,354.94"/>
    </edge>
    <edge id=":1370447079_5" function="internal">
        <lane id=":1370447079_5_0" index="0" allow="pedestrian bicycle" speed="2.04" length="1.46" width="1.00" shape="453.04,353.43 452.61,353.58 452.34,353.53 452.21,353.28 452.24,352.83"/>
    </edge>
    <edge id=":1370447079_6" function="internal">
        <lane id=":1370447079_6_0" index="0" allow="pedestrian bicycle" speed="3.90" length="3.84" width="1.00" shape="448.68,358.02 449.16,356.96 449.19,356.10 448.75,355.42 447.87,354.94"/>
    </edge>
    <edge id=":1370447079_7" function="internal">
        <lane id=":1370447079_7_0" index="0" allow="pedestrian bicycle" speed="5.56" length="6.30" width="1.00" shape="448.68,358.02 449.67,356.43 450.37,355.37 451.12,354.33 452.24,352.83"/>
    </edge>
    <edge id=":1370447079_8" function="internal">
        <lane id=":1370447079_8_0" index="0" allow="pedestrian bicycle" speed="2.04" length="1.46" width="1.00" shape="448.68,358.02 449.09,357.83 449.37,357.86 449.51,358.09 449.53,358.54"/>
    </edge>
    <edge id=":1370447085_0" function="internal">
        <lane id=":1370447085_0_0" index="0" allow="bicycle" speed="5.56" length="15.41" width="1.00" shape="450.00,363.09 446.35,361.86 442.63,360.51 438.89,359.52 435.16,359.37"/>
    </edge>
    <edge id=":1370447085_1" function="internal">
        <lane id=":1370447085_1_0" index="0" allow="bicycle" speed="4.77" length="5.80" width="1.00" shape="450.00,363.09 448.70,362.45 448.10,361.47 448.20,360.14 449.00,358.45"/>
    </edge>
    <edge id=":1370447085_2" function="internal">
        <lane id=":1370447085_2_0" index="0" allow="bicycle" speed="2.89" length="2.92" width="2.00" shape="450.00,363.09 449.41,362.40 449.30,361.86 449.67,361.44 450.53,361.16"/>
    </edge>
    <edge id=":1370447085_3" function="internal">
        <lane id=":1370447085_3_0" index="0" allow="bicycle" speed="3.81" length="3.81" width="1.00" shape="449.00,358.45 448.64,359.35 448.78,360.10 449.41,360.70 450.53,361.16"/>
    </edge>
    <edge id=":1370447085_4" function="internal">
        <lane id=":1370447085_4_0" index="0" allow="pedestrian bicycle" speed="5.56" length="14.26" width="1.00" shape="449.42,358.71 435.21,359.87"/>
    </edge>
    <edge id=":1370447085_5" function="internal">
        <lane id=":1370447085_5_0" index="0" allow="pedestrian bicycle" speed="2.04" length="1.46" width="1.00" shape="449.42,358.71 449.01,358.90 448.74,358.88 448.59,358.64 448.57,358.19"/>
    </edge>
    <edge id=":1370447085_6" function="internal">
        <lane id=":1370447085_6_0" index="0" allow="pedestrian bicycle" speed="5.56" length="13.21" width="1.00" shape="435.38,358.84 448.57,358.19"/>
    </edge>
    <edge id=":1370447085_7" function="internal">
        <lane id=":1370447085_7_0" index="0" allow="bicycle" speed="5.56" length="15.29" width="1.00" shape="435.43,359.34 439.21,359.19 443.04,359.53 446.84,360.23 450.53,361.16"/>
    </edge>
    <edge id=":1370447085_8" function="internal">
        <lane id=":1370447085_8_0" index="0" allow="pedestrian bicycle" speed="2.07" length="1.52" width="1.00" shape="435.38,358.84 435.72,359.16 435.81,359.43 435.64,359.67 435.21,359.87"/>
    </edge>
    <edge id=":1370447100_0" function="internal">
        <lane id=":1370447100_0_0" index="0" allow="pedestrian bicycle" speed="4.67" length="4.24" width="2.00" shape="522.74,399.68 522.26,400.77 522.21,401.75 522.57,402.64 523.36,403.42"/>
    </edge>
    <edge id=":1370447100_1" function="internal">
        <lane id=":1370447100_1_0" index="0" allow="pedestrian bicycle" speed="5.56" length="5.82" width="2.00" shape="522.74,399.68 521.84,401.16 521.19,402.15 520.50,403.10 519.45,404.48"/>
    </edge>
    <edge id=":1370447100_2" function="internal">
        <lane id=":1370447100_2_0" index="0" allow="pedestrian bicycle" speed="2.89" length="2.92" width="2.00" shape="522.74,399.68 521.92,400.07 521.37,400.02 521.07,399.55 521.03,398.65"/>
    </edge>
    <edge id=":1370447100_3" function="internal">
        <lane id=":1370447100_3_0" index="0" allow="pedestrian bicycle" speed="4.51" length="4.04" width="2.00" shape="517.61,399.23 518.62,399.78 519.53,399.86 520.33,399.49 521.03,398.65"/>
    </edge>
    <edge id=":1370447100_4" function="internal">
        <lane id=":1370447100_4_0" index="0" disallow="tram rail_urban rail rail_electric rail_fast ship container cable_car subway aircraft wheelchair scooter drone" speed="13.89" length="7.11" shape="517.61,399.23 523.36,403.42"/>
    </edge>
    <edge id=":1370447100_5" function="internal">
        <lane id=":1370447100_5_0" index="0" allow="pedestrian bicycle" speed="5.52" length="6.31" width="2.00" shape="517.61,399.23 519.13,400.58 519.95,401.91 520.05,403.21 519.45,404.48"/>
    </edge>
    <edge id=":1370447100_6" function="internal">
        <lane id=":1370447100_6_0" index="0" allow="pedestrian bicycle" speed="5.56" length="5.61" width="2.00" shape="517.86,403.27 518.87,401.94 519.54,401.02 520.16,400.07 521.03,398.65"/>
    </edge>
    <edge id=":1370447100_7" function="internal">
        <lane id=":1370447100_7_0" index="0" allow="pedestrian bicycle" speed="5.40" length="6.19" width="2.00" shape="517.86,403.27 518.91,402.35 520.18,402.06 521.66,402.42 523.36,403.42"/>
    </edge>
    <edge id=":1370447100_8" function="internal">
        <lane id=":1370447100_8_0" index="0" allow="pedestrian bicycle" speed="2.89" length="2.92" width="2.00" shape="517.86,403.27 518.71,402.97 519.26,403.08 519.51,403.58 519.45,404.48"/>
    </edge>
    <edge id=":1370447102_0" function="internal">
        <lane id=":1370447102_0_0" index="0" allow="pedestrian bicycle" speed="4.87" length="4.30" width="2.00" shape="519.70,408.53 518.61,408.05 517.62,408.00 516.72,408.38 515.92,409.19"/>
    </edge>
    <edge id=":1370447102_1" function="internal">
        <lane id=":1370447102_1_0" index="0" disallow="tram rail_urban rail rail_electric rail_fast ship container cable_car subway aircraft wheelchair scooter drone" speed="13.89" length="7.23" shape="519.70,408.53 513.62,404.62"/>
    </edge>
    <edge id=":1370447102_2" function="internal">
        <lane id=":1370447102_2_0" index="0" allow="pedestrian bicycle" speed="5.41" length="6.36" width="2.00" shape="519.70,408.53 518.09,407.29 517.23,406.02 517.13,404.71 517.78,403.37"/>
    </edge>
    <edge id=":1370447102_3" function="internal">
        <lane id=":1370447102_3_0" index="0" allow="pedestrian bicycle" speed="5.56" length="5.76" width="2.00" shape="519.37,404.58 515.92,409.19"/>
    </edge>
    <edge id=":1370447102_4" function="internal">
        <lane id=":1370447102_4_0" index="0" allow="pedestrian bicycle" speed="5.57" length="6.44" width="2.00" shape="519.37,404.58 518.28,405.55 516.95,405.88 515.40,405.57 513.62,404.62"/>
    </edge>
    <edge id=":1370447102_5" function="internal">
        <lane id=":1370447102_5_0" index="0" allow="pedestrian bicycle" speed="2.89" length="2.92" width="2.00" shape="519.37,404.58 518.52,404.88 517.97,404.77 517.73,404.27 517.78,403.37"/>
    </edge>
    <edge id=":1370447102_6" function="internal">
        <lane id=":1370447102_6_0" index="0" allow="pedestrian bicycle" speed="4.35" length="3.98" width="2.00" shape="514.31,408.00 514.81,407.06 514.86,406.18 514.46,405.37 513.62,404.62"/>
    </edge>
    <edge id=":1370447102_7" function="internal">
        <lane id=":1370447102_7_0" index="0" allow="pedestrian bicycle" speed="5.56" length="5.79" width="2.00" shape="514.31,408.00 517.78,403.37"/>
    </edge>
    <edge id=":1370447102_8" function="internal">
        <lane id=":1370447102_8_0" index="0" allow="pedestrian bicycle" speed="2.89" length="2.92" width="2.00" shape="514.31,408.00 515.16,407.70 515.71,407.79 515.96,408.29 515.92,409.19"/>
    </edge>
    <edge id=":1460128720_0" function="internal">
        <lane id=":1460128720_0_0" index="0" allow="pedestrian bicycle" speed="2.04" length="1.46" width="1.00" shape="0.18,1108.35 -0.26,1108.26 -0.46,1108.07 -0.44,1107.80 -0.18,1107.42"/>
    </edge>
    <edge id=":1587375119_0" function="internal">
        <lane id=":1587375119_0_0" index="0" disallow="tram rail_urban rail rail_electric rail_fast ship container cable_car subway aircraft wheelchair scooter drone" speed="3.65" length="4.67" shape="40.82,46.70 40.75,45.26 41.16,44.46 42.04,44.31 43.39,44.80"/>
    </edge>
    <edge id=":1587375168_0" function="internal">
        <lane id=":1587375168_0_0" index="0" disallow="tram rail_urban rail rail_electric rail_fast ship container cable_car subway aircraft wheelchair scooter drone" speed="18.06" length="0.31" shape="270.21,223.69 269.95,223.53"/>
    </edge>
    <edge id=":1587375168_1" function="internal">
        <lane id=":1587375168_1_0" index="0" disallow="tram rail_urban rail rail_electric rail_fast ship container cable_car subway aircraft wheelchair scooter drone" speed="18.06" length="0.25" shape="271.67,220.83 271.89,220.97"/>
    </edge>
    <edge id=":1818101465_0" function="internal">
        <lane id=":1818101465_0_0" index="0" disallow="tram rail_urban rail rail_electric rail_fast ship container cable_car subway aircraft wheelchair scooter drone" speed="11.11" length="4.78" shape="552.03,402.89 550.74,402.31 549.87,401.87 549.03,401.38 547.83,400.64"/>
    </edge>
    <edge id=":1818101465_1" function="internal">
        <lane id=":1818101465_1_0" index="0" disallow="tram rail_urban rail rail_electric rail_fast ship container cable_car subway aircraft wheelchair scooter drone" speed="11.11" length="4.34" shape="549.52,397.92 550.61,398.60 551.38,399.04 552.16,399.44 553.34,399.97"/>
    </edge>
    <edge id=":1835504799_0" function="internal">
        <lane id=":1835504799_0_0" index="0" disallow="tram rail_urban rail rail_electric rail_fast ship container cable_car subway aircraft wheelchair scooter drone" speed="3.65" length="4.67" shape="323.88,418.52 322.66,419.29 321.76,419.32 321.20,418.63 320.96,417.21"/>
    </edge>
    <edge id=":197445822_0" function="internal">
        <lane id=":197445822_0_0" index="0" disallow="tram rail_urban rail rail_electric rail_fast ship container cable_car subway aircraft wheelchair scooter drone" speed="20.83" length="12.84" shape="364.59,260.71 367.83,260.87 370.55,260.93 373.44,260.55 377.22,259.39"/>
    </edge>
    <edge id=":197445822_1" function="internal">
        <lane id=":197445822_1_0" index="0" disallow="tram rail_urban rail rail_electric rail_fast ship container cable_car subway aircraft wheelchair scooter drone" speed="27.78" length="12.89" shape="366.12,266.21 369.20,263.82 371.34,262.20 373.65,260.87 377.22,259.39"/>
        <lane id=":197445822_1_1" index="1" disallow="tram rail_urban rail rail_electric rail_fast ship container cable_car subway aircraft wheelchair scooter drone" speed="27.78" length="12.89" shape="367.67,269.05 370.64,266.73 372.69,265.13 374.90,263.83 378.35,262.38"/>
    </edge>
    <edge id=":2357786964_0" function="internal">
        <lane id=":2357786964_0_0" index="0" disallow="tram rail_urban rail rail_electric rail_fast ship container cable_car subway aircraft wheelchair scooter drone" speed="3.65" length="4.67" shape="683.38,30.58 684.77,30.18 685.64,30.38 685.99,31.20 685.84,32.63"/>
    </edge>
    <edge id=":2421328907_0" function="internal">
        <lane id=":2421328907_0_0" index="0" disallow="tram rail_urban rail rail_electric rail_fast ship container cable_car subway aircraft wheelchair scooter drone" speed="6.45" length="9.07" shape="535.01,404.70 533.94,406.97 533.86,409.01 534.78,410.82 536.70,412.41"/>
    </edge>
    <edge id=":2421328907_1" function="internal">
        <lane id=":2421328907_1_0" index="0" disallow="tram rail_urban rail rail_electric rail_fast ship container cable_car subway aircraft wheelchair scooter drone" speed="13.89" length="9.66" shape="535.01,404.70 529.73,412.79"/>
    </edge>
    <edge id=":2421328907_2" function="internal">
        <lane id=":2421328907_2_0" index="0" disallow="tram rail_urban rail rail_electric rail_fast ship container cable_car subway aircraft wheelchair scooter drone" speed="3.65" length="4.67" shape="535.01,404.70 533.68,405.26 532.79,405.16 532.34,404.38 532.33,402.94"/>
    </edge>
    <edge id=":2421328907_3" function="internal">
        <lane id=":2421328907_3_0" index="0" disallow="tram rail_urban rail rail_electric rail_fast ship container cable_car subway aircraft wheelchair scooter drone" speed="6.41" length="9.04" shape="524.62,404.34 526.83,405.50 528.84,405.66 530.68,404.81 532.33,402.94"/>
    </edge>
    <edge id=":2421328907_4" function="internal">
        <lane id=":2421328907_4_0" index="0" disallow="tram rail_urban rail rail_electric rail_fast ship container cable_car subway aircraft wheelchair scooter drone" speed="13.89" length="14.52" shape="524.62,404.34 536.70,412.41"/>
    </edge>
    <edge id=":2421328907_5" function="internal">
        <lane id=":2421328907_5_0" index="0" disallow="tram rail_urban rail rail_electric rail_fast ship container cable_car subway aircraft wheelchair scooter drone" speed="7.18" length="10.72" shape="524.62,404.34 527.63,406.83 529.49,409.07 530.19,411.06 529.73,412.79"/>
    </edge>
    <edge id=":2421328907_6" function="internal">
        <lane id=":2421328907_6_0" index="0" disallow="tram rail_urban rail rail_electric rail_fast ship container cable_car subway aircraft wheelchair scooter drone" speed="13.89" length="9.71" shape="527.03,411.08 532.33,402.94"/>
    </edge>
    <edge id=":2421328907_7" function="internal">
        <lane id=":2421328907_7_0" index="0" disallow="tram rail_urban rail rail_electric rail_fast ship container cable_car subway aircraft wheelchair scooter drone" speed="7.07" length="10.66" shape="527.03,411.08 528.42,409.93 530.50,409.77 533.26,410.60 536.70,412.41"/>
    </edge>
    <edge id=":2421328907_8" function="internal">
        <lane id=":2421328907_8_0" index="0" disallow="tram rail_urban rail rail_electric rail_fast ship container cable_car subway aircraft wheelchair scooter drone" speed="3.65" length="4.67" shape="527.03,411.08 528.35,410.49 529.24,410.58 529.70,411.35 529.73,412.79"/>
    </edge>
    <edge id=":258526961_0" function="internal">
        <lane id=":258526961_0_0" index="0" disallow="tram rail_urban rail rail_electric rail_fast ship container cable_car subway aircraft wheelchair scooter drone" speed="13.89" length="6.80" shape="346.69,383.66 345.22,385.02 344.33,386.08 343.55,387.23 342.39,388.89"/>
    </edge>
    <edge id=":258526961_1" function="internal">
        <lane id=":258526961_1_0" index="0" disallow="tram rail_urban rail rail_electric rail_fast ship container cable_car subway aircraft wheelchair scooter drone" speed="13.89" length="4.51" shape="339.82,386.99 340.59,385.90 341.05,385.11 341.43,384.27 341.96,383.04"/>
    </edge>
    <edge id=":258526961_2" function="internal">
        <lane id=":258526961_2_0" index="0" disallow="tram rail_urban rail rail_electric rail_fast ship container cable_car subway aircraft wheelchair scooter drone" speed="3.65" length="1.44" shape="339.82,386.99 341.17,386.50"/>
    </edge>
    <edge id=":258526961_3" function="internal">
        <lane id=":258526961_3_0" index="0" disallow="tram rail_urban rail rail_electric rail_fast ship container cable_car subway aircraft wheelchair scooter drone" speed="3.65" length="3.23" shape="341.17,386.50 342.06,386.65 342.46,387.45 342.39,388.89"/>
    </edge>
    <edge id=":258527109_0" function="internal">
        <lane id=":258527109_0_0" index="0" disallow="tram rail_urban rail rail_electric rail_fast ship container cable_car subway aircraft wheelchair scooter drone" speed="20.83" length="12.27" shape="401.25,254.57 405.02,254.14 407.71,253.60 410.17,252.89 413.21,251.96"/>
    </edge>
    <edge id=":258527109_1" function="internal">
        <lane id=":258527109_1_0" index="0" disallow="tram rail_urban rail rail_electric rail_fast ship container cable_car subway aircraft wheelchair scooter drone" speed="21.32" length="12.58" shape="401.25,254.57 404.99,254.47 407.54,254.92 410.03,255.86 413.58,257.23"/>
        <lane id=":258527109_1_1" index="1" disallow="tram rail_urban rail rail_electric rail_fast ship container cable_car subway aircraft wheelchair scooter drone" speed="20.96" length="12.58" shape="401.51,257.76 405.12,257.70 407.56,258.21 409.95,259.19 413.37,260.54"/>
    </edge>
    <edge id=":258527151_0" function="internal">
        <lane id=":258527151_0_0" index="0" disallow="tram rail_urban rail rail_electric rail_fast ship container cable_car subway aircraft wheelchair scooter drone" speed="20.83" length="12.50" shape="396.89,358.26 393.07,358.71 390.36,359.46 387.93,360.47 384.97,361.71"/>
    </edge>
    <edge id=":258527151_1" function="internal">
        <lane id=":258527151_1_0" index="0" disallow="tram rail_urban rail rail_electric rail_fast ship container cable_car subway aircraft wheelchair scooter drone" speed="27.78" length="12.55" shape="396.89,358.26 393.12,358.33 390.54,357.98 388.01,357.27 384.33,356.25"/>
        <lane id=":258527151_1_1" index="1" disallow="tram rail_urban rail rail_electric rail_fast ship container cable_car subway aircraft wheelchair scooter drone" speed="27.78" length="12.55" shape="396.69,355.07 393.08,355.11 390.61,354.74 388.18,354.03 384.66,353.03"/>
    </edge>
    <edge id=":258527192_0" function="internal">
        <lane id=":258527192_0_0" index="0" disallow="tram rail_urban rail rail_electric rail_fast ship container cable_car subway aircraft wheelchair scooter drone" speed="20.83" length="12.76" shape="346.38,304.92 345.94,300.98 345.29,298.15 344.42,295.62 343.34,292.58"/>
    </edge>
    <edge id=":258527192_1" function="internal">
        <lane id=":258527192_1_0" index="0" disallow="tram rail_urban rail rail_electric rail_fast ship container cable_car subway aircraft wheelchair scooter drone" speed="21.05" length="12.99" shape="346.38,304.92 346.21,301.03 346.46,298.35 347.22,295.74 348.59,292.07"/>