<?xml version="1.0" encoding="UTF-8"?>

<!-- generated on 2024-09-03 01:37:05 by Eclipse SUMO netconvert Version 1.20.0
<configuration xmlns:xsi="http://www.w3.org/2001/XMLSchema-instance" xsi:noNamespaceSchemaLocation="http://sumo.dlr.de/xsd/netconvertConfiguration.xsd">

    <input>
        <osm-files value="train_files/roundabout/easy/osm_files/ra_3.osm"/>
    </input>

    <output>
        <output-file value="train_files/roundabout/easy/outputs/ra_3_dict/ra_3/ra_3.net.xml"/>
    </output>

    <projection>
        <proj.utm value="true"/>
    </projection>

    <building_defaults>
        <default.junctions.keep-clear value="false"/>
    </building_defaults>

</configuration>
-->

<net version="1.20" junctionCornerDetail="5" limitTurnSpeed="5.50" xmlns:xsi="http://www.w3.org/2001/XMLSchema-instance" xsi:noNamespaceSchemaLocation="http://sumo.dlr.de/xsd/net_file.xsd">

    <location netOffset="-434979.19,-5392698.80" convBoundary="0.00,0.00,328.66,448.97" origBoundary="2.116540,48.683952,2.121054,48.687983" projParameter="+proj=utm +zone=31 +ellps=WGS84 +datum=WGS84 +units=m +no_defs"/>

    <type id="highway.footway" priority="1" numLanes="1" speed="2.78" allow="pedestrian" oneway="1" width="2.00"/>
    <type id="highway.service" priority="1" numLanes="1" speed="5.56" allow="pedestrian delivery bicycle" oneway="0"/>
    <type id="highway.tertiary" priority="10" numLanes="1" speed="22.22" disallow="tram rail_urban rail rail_electric rail_fast ship container cable_car subway aircraft wheelchair scooter drone" oneway="0"/>

    <edge id=":258536117_0" function="internal">
        <lane id=":258536117_0_0" index="0" disallow="tram rail_urban rail rail_electric rail_fast ship container cable_car subway aircraft wheelchair scooter drone" speed="13.89" length="8.03" shape="264.87,183.63 263.73,181.57 262.67,180.34 261.41,179.25 259.64,177.65"/>
    </edge>
    <edge id=":258536117_1" function="internal">
        <lane id=":258536117_1_0" index="0" disallow="tram rail_urban rail rail_electric rail_fast ship container cable_car subway aircraft wheelchair scooter drone" speed="11.63" length="8.14" shape="264.87,183.63 263.83,181.45 263.27,179.86 263.15,178.20 263.43,175.84"/>
    </edge>
    <edge id=":258536171_0" function="internal">
        <lane id=":258536171_0_0" index="0" disallow="tram rail_urban rail rail_electric rail_fast ship container cable_car subway aircraft wheelchair scooter drone" speed="13.89" length="7.77" shape="269.38,158.52 271.63,159.05 273.21,159.45 274.77,159.56 277.00,159.18"/>
    </edge>
    <edge id=":258536171_1" function="internal">
        <lane id=":258536171_1_0" index="0" disallow="tram rail_urban rail rail_electric rail_fast ship container cable_car subway aircraft wheelchair scooter drone" speed="12.02" length="7.90" shape="270.10,162.60 271.78,161.02 273.15,160.19 274.72,159.71 277.00,159.18"/>
    </edge>
    <edge id=":258536417_0" function="internal">
        <lane id=":258536417_0_0" index="0" disallow="tram rail_urban rail rail_electric rail_fast ship container cable_car subway aircraft wheelchair scooter drone" speed="13.89" length="9.17" shape="303.42,173.90 301.92,176.18 300.85,177.73 299.96,179.36 299.05,181.90"/>
    </edge>
    <edge id=":258536417_1" function="internal">
        <lane id=":258536417_1_0" index="0" disallow="tram rail_urban rail rail_electric rail_fast ship container cable_car subway aircraft wheelchair scooter drone" speed="13.89" length="9.29" shape="299.30,172.80 299.85,175.48 300.04,177.39 299.78,179.27 299.05,181.90"/>
    </edge>
    <edge id=":258536420_0" function="internal">
        <lane id=":258536420_0_0" index="0" disallow="tram rail_urban rail rail_electric rail_fast ship container cable_car subway aircraft wheelchair scooter drone" speed="13.89" length="11.29" shape="273.49,197.08 271.77,194.41 270.53,192.25 269.20,190.17 267.19,187.73"/>
    </edge>
    <edge id=":258536420_1" function="internal">
        <lane id=":258536420_1_0" index="0" disallow="tram rail_urban rail rail_electric rail_fast ship container cable_car subway aircraft wheelchair scooter drone" speed="13.02" length="11.43" shape="276.37,194.04 273.34,193.19 271.21,191.92 269.37,190.14 267.19,187.73"/>
    </edge>
    <edge id=":258591666_0" function="internal">
        <lane id=":258591666_0_0" index="0" disallow="tram rail_urban rail rail_electric rail_fast ship container cable_car subway aircraft wheelchair scooter drone" speed="3.65" length="4.67" shape="78.78,0.87 78.80,-0.57 79.26,-1.34 80.15,-1.44 81.47,-0.87"/>
    </edge>
    <edge id=":258591673_0" function="internal">
        <lane id=":258591673_0_0" index="0" disallow="tram rail_urban rail rail_electric rail_fast ship container cable_car subway aircraft wheelchair scooter drone" speed="13.89" length="8.20" shape="239.83,158.21 238.05,156.57 236.71,155.59 235.28,154.71 233.24,153.39"/>
    </edge>
    <edge id=":258591673_1" function="internal">
        <lane id=":258591673_1_0" index="0" disallow="tram rail_urban rail rail_electric rail_fast ship container cable_car subway aircraft wheelchair scooter drone" speed="5.36" length="5.28" shape="239.83,158.21 236.98,155.08 236.49,154.16"/>
    </edge>
    <edge id=":258591673_4" function="internal">
        <lane id=":258591673_4_0" index="0" disallow="tram rail_urban rail rail_electric rail_fast ship container cable_car subway aircraft wheelchair scooter drone" speed="5.36" length="4.97" shape="236.49,154.16 235.92,153.06 236.66,152.14 239.20,152.34"/>
    </edge>
    <edge id=":258591673_2" function="internal">
        <lane id=":258591673_2_0" index="0" disallow="tram rail_urban rail rail_electric rail_fast ship container cable_car subway aircraft wheelchair scooter drone" speed="13.89" length="4.52" shape="235.03,150.74 236.16,151.45 236.99,151.83 237.89,152.06 239.20,152.34"/>
    </edge>
    <edge id=":258591673_3" function="internal">
        <lane id=":258591673_3_0" index="0" disallow="tram rail_urban rail rail_electric rail_fast ship container cable_car subway aircraft wheelchair scooter drone" speed="3.65" length="1.44" shape="235.03,150.74 235.57,152.08"/>
    </edge>
    <edge id=":258591673_5" function="internal">
        <lane id=":258591673_5_0" index="0" disallow="tram rail_urban rail rail_electric rail_fast ship container cable_car subway aircraft wheelchair scooter drone" speed="3.65" length="3.23" shape="235.57,152.08 235.46,152.96 234.68,153.40 233.24,153.39"/>
    </edge>
    <edge id=":4212377835_0" function="internal">
        <lane id=":4212377835_0_0" index="0" disallow="tram rail_urban rail rail_electric rail_fast ship container cable_car subway aircraft wheelchair scooter drone" speed="13.89" length="7.54" shape="297.68,185.22 296.79,187.22 296.54,188.72 296.60,190.30 296.64,192.55"/>
    </edge>
    <edge id=":4212377835_1" function="internal">
        <lane id=":4212377835_1_0" index="0" disallow="tram rail_urban rail rail_electric rail_fast ship container cable_car subway aircraft wheelchair scooter drone" speed="13.89" length="7.55" shape="297.68,185.22 296.54,187.13 295.58,188.33 294.47,189.41 292.89,190.99"/>
    </edge>
    <edge id=":6312913172_0" function="internal">
        <lane id=":6312913172_0_0" index="0" disallow="tram rail_urban rail rail_electric rail_fast ship container cable_car subway aircraft wheelchair scooter drone" speed="13.89" length="7.66" shape="281.92,158.59 284.14,158.43 285.61,157.94 287.00,157.14 289.01,156.05"/>
    </edge>
    <edge id=":6312913172_1" function="internal">
        <lane id=":6312913172_1_0" index="0" disallow="tram rail_urban rail rail_electric rail_fast ship container cable_car subway aircraft wheelchair scooter drone" speed="12.74" length="7.75" shape="281.92,158.59 284.22,158.58 285.82,158.71 287.32,159.20 289.32,160.27"/>
    </edge>
    <edge id=":6828004034_0" function="internal">
        <lane id=":6828004034_0_0" index="0" allow="pedestrian delivery bicycle" speed="3.65" length="4.67" shape="265.87,232.83 264.46,233.14 263.60,232.87 263.31,232.02 263.57,230.60"/>
    </edge>
    <edge id=":6828004036_0" function="internal">
        <lane id=":6828004036_0_0" index="0" allow="pedestrian delivery bicycle" speed="4.99" length="5.05" shape="287.30,216.71 286.35,215.70 285.31,215.25 284.18,215.38 282.97,216.06"/>
    </edge>
    <edge id=":6828004036_1" function="internal">
        <lane id=":6828004036_1_0" index="0" disallow="tram rail_urban rail rail_electric rail_fast ship container cable_car subway aircraft wheelchair scooter drone" speed="13.89" length="9.41" shape="287.30,216.71 281.88,209.03"/>
    </edge>
    <edge id=":6828004036_2" function="internal">
        <lane id=":6828004036_2_0" index="0" allow="pedestrian delivery bicycle" speed="5.19" length="5.18" shape="281.01,213.53 282.04,212.49 282.54,211.39 282.48,210.24 281.88,209.03"/>
    </edge>
    <edge id=":6828004036_3" function="internal">
        <lane id=":6828004036_3_0" index="0" allow="pedestrian delivery bicycle" speed="3.65" length="4.67" shape="281.01,213.53 282.45,213.43 283.25,213.82 283.43,214.70 282.97,216.06"/>
    </edge>
    <edge id=":6828004037_0" function="internal">
        <lane id=":6828004037_0_0" index="0" allow="pedestrian delivery bicycle" speed="5.56" length="5.29" shape="281.13,217.49 279.90,218.46 279.08,219.16 278.32,219.92 277.25,221.06"/>
    </edge>
    <edge id=":6828004037_1" function="internal">
        <lane id=":6828004037_1_0" index="0" allow="pedestrian delivery bicycle" speed="3.65" length="1.44" shape="281.13,217.49 279.69,217.59"/>
    </edge>
    <edge id=":6828004037_4" function="internal">
        <lane id=":6828004037_4_0" index="0" allow="pedestrian delivery bicycle" speed="3.65" length="3.23" shape="279.69,217.59 278.88,217.20 278.71,216.32 279.17,214.96"/>
    </edge>
    <edge id=":6828004037_2" function="internal">
        <lane id=":6828004037_2_0" index="0" allow="pedestrian delivery bicycle" speed="5.56" length="5.79" shape="274.92,218.87 276.09,217.62 276.93,216.79 277.82,216.02 279.17,214.96"/>
    </edge>
    <edge id=":6828004037_3" function="internal">
        <lane id=":6828004037_3_0" index="0" allow="pedestrian delivery bicycle" speed="3.65" length="1.44" shape="274.92,218.87 276.32,218.54"/>
    </edge>
    <edge id=":6828004037_5" function="internal">
        <lane id=":6828004037_5_0" index="0" allow="pedestrian delivery bicycle" speed="3.65" length="3.23" shape="276.32,218.54 277.18,218.80 277.49,219.64 277.25,221.06"/>
    </edge>

    <edge id="-533367157" from="258591666" to="258591673" priority="10" type="highway.tertiary" shape="80.12,0.00 107.99,43.21 123.84,63.05 155.01,96.17 178.11,114.15 206.92,133.65 232.32,150.84">
        <lane id="-533367157_0" index="0" disallow="tram rail_urban rail rail_electric rail_fast ship container cable_car subway aircraft wheelchair scooter drone" speed="13.89" length="218.56" shape="81.47,-0.87 109.29,42.28 125.05,62.00 156.09,94.98 179.05,112.86 207.82,132.33 235.03,150.74"/>
    </edge>
    <edge id="-728796699#0" from="6828004037" to="6828004034" priority="1" type="highway.service" shape="278.14,217.78 274.67,221.47 264.72,231.72">
        <lane id="-728796699#0_0" index="0" allow="pedestrian delivery bicycle" speed="5.56" length="16.38" shape="277.25,221.06 275.83,222.57 265.87,232.83"/>
    </edge>
    <edge id="-728796699#1" from="6828004036" to="6828004037" priority="1" type="highway.service">
        <lane id="-728796699#1_0" index="0" allow="pedestrian delivery bicycle" speed="5.56" length="2.33" shape="282.97,216.06 281.13,217.49"/>
    </edge>
    <edge id="1244966291#0" from="4212377835" to="258536420" priority="10" type="highway.tertiary" spreadType="center" shape="296.79,186.88 292.64,191.25 287.30,194.04 281.33,194.95 275.40,193.86 270.14,190.92">
        <lane id="1244966291#0_0" index="0" disallow="tram rail_urban rail rail_electric rail_fast ship container cable_car subway aircraft wheelchair scooter drone" speed="13.89" length="17.46" shape="292.89,190.99 292.64,191.25 287.30,194.04 281.33,194.95 276.37,194.04"/>
    </edge>
    <edge id="1244966291#1" from="258536420" to="258536117" priority="10" type="highway.tertiary" spreadType="center" shape="270.14,190.92 266.45,186.93 264.10,182.02">
        <lane id="1244966291#1_0" index="0" disallow="tram rail_urban rail rail_electric rail_fast ship container cable_car subway aircraft wheelchair scooter drone" speed="13.89" length="4.75" shape="267.19,187.73 266.45,186.93 264.87,183.63"/>
    </edge>
    <edge id="1244966291#2" from="258536117" to="258536171" priority="10" type="highway.tertiary" spreadType="center" shape="264.10,182.02 263.31,176.59 264.17,171.17 266.61,166.25 270.41,162.28 275.21,159.61">
        <lane id="1244966291#2_0" index="0" disallow="tram rail_urban rail rail_electric rail_fast ship container cable_car subway aircraft wheelchair scooter drone" speed="13.89" length="15.27" shape="263.43,175.84 264.17,171.17 266.61,166.25 270.10,162.60"/>
    </edge>
    <edge id="1244966291#3" from="258536171" to="6312913172" priority="10" type="highway.tertiary" spreadType="center" shape="275.21,159.61 279.44,158.60 283.79,158.59">
        <lane id="1244966291#3_0" index="0" disallow="tram rail_urban rail rail_electric rail_fast ship container cable_car subway aircraft wheelchair scooter drone" speed="13.89" length="4.99" shape="277.00,159.18 279.44,158.60 281.92,158.59"/>
    </edge>
    <edge id="1244966291#4" from="6312913172" to="258536417" priority="10" type="highway.tertiary" spreadType="center" shape="283.79,158.59 288.64,159.87 292.95,162.40 296.41,166.01 298.78,170.41 299.84,175.29 299.54,180.28">
        <lane id="1244966291#4_0" index="0" disallow="tram rail_urban rail rail_electric rail_fast ship container cable_car subway aircraft wheelchair scooter drone" speed="13.89" length="16.65" shape="289.32,160.27 292.95,162.40 296.41,166.01 298.78,170.41 299.30,172.80"/>
    </edge>
    <edge id="1244966291#5" from="258536417" to="4212377835" priority="10" type="highway.tertiary" spreadType="center" shape="299.54,180.28 298.50,183.71 296.79,186.88">
        <lane id="1244966291#5_0" index="0" disallow="tram rail_urban rail rail_electric rail_fast ship container cable_car subway aircraft wheelchair scooter drone" speed="13.89" length="3.61" shape="299.05,181.90 298.50,183.71 297.68,185.22"/>
    </edge>
    <edge id="23855918#0" from="2536611904" to="6828004036" priority="10" type="highway.tertiary" spreadType="center" shape="314.23,260.43 311.17,253.98 307.24,246.66 293.99,226.17 284.55,212.81">
        <lane id="23855918#0_0" index="0" disallow="tram rail_urban rail rail_electric rail_fast ship container cable_car subway aircraft wheelchair scooter drone" speed="13.89" length="51.07" shape="314.07,260.11 311.17,253.98 307.24,246.66 293.99,226.17 287.30,216.71"/>
    </edge>
    <edge id="23855918#1" from="6828004036" to="258536420" priority="10" type="highway.tertiary" spreadType="center" shape="284.55,212.81 281.24,208.13 273.42,196.99 270.14,190.92">
        <lane id="23855918#1_0" index="0" disallow="tram rail_urban rail rail_electric rail_fast ship container cable_car subway aircraft wheelchair scooter drone" speed="13.89" length="14.60" shape="281.88,209.03 281.24,208.13 273.49,197.08"/>
    </edge>
    <edge id="23855931" from="258591673" to="258536171" priority="10" type="highway.tertiary" spreadType="center" shape="232.32,150.84 262.31,157.37 269.06,158.46 275.21,159.61">
        <lane id="23855931_0" index="0" disallow="tram rail_urban rail rail_electric rail_fast ship container cable_car subway aircraft wheelchair scooter drone" speed="13.89" length="30.81" shape="239.20,152.34 262.31,157.37 269.06,158.46 269.38,158.52"/>
    </edge>
    <edge id="246652341" from="4212377835" to="2536611904" priority="10" type="highway.tertiary" spreadType="center" shape="296.79,186.88 296.33,204.63 296.97,212.08 298.34,219.37 302.24,227.66 306.73,234.31 311.83,241.83 315.00,247.43 315.82,253.89 317.08,259.54">
        <lane id="246652341_0" index="0" disallow="tram rail_urban rail rail_electric rail_fast ship container cable_car subway aircraft wheelchair scooter drone" speed="13.89" length="71.54" shape="296.64,192.55 296.33,204.63 296.97,212.08 298.34,219.37 302.24,227.66 306.73,234.31 311.83,241.83 315.00,247.43 315.82,253.89 316.98,259.10"/>
    </edge>
    <edge id="254768532" from="6312913172" to="258534730" priority="10" type="highway.tertiary" spreadType="center" shape="283.79,158.59 292.80,154.20 304.29,149.55 328.66,136.73">
        <lane id="254768532_0" index="0" disallow="tram rail_urban rail rail_electric rail_fast ship container cable_car subway aircraft wheelchair scooter drone" speed="13.89" length="37.08" shape="289.01,156.05 292.80,154.20 304.29,149.55 322.40,140.02"/>
    </edge>
    <edge id="254768535" from="258534730" to="258536417" priority="10" type="highway.tertiary" spreadType="center" shape="328.66,136.73 315.38,154.50 303.84,173.21 299.54,180.28">
        <lane id="254768535_0" index="0" disallow="tram rail_urban rail rail_electric rail_fast ship container cable_car subway aircraft wheelchair scooter drone" speed="13.89" length="37.90" shape="324.43,142.40 315.38,154.50 303.84,173.21 303.42,173.90"/>
    </edge>
    <edge id="362695010" from="258536117" to="258591673" priority="10" type="highway.tertiary" spreadType="center">
        <lane id="362695010_0" index="0" disallow="tram rail_urban rail rail_electric rail_fast ship container cable_car subway aircraft wheelchair scooter drone" speed="13.89" length="27.75" shape="259.64,177.65 239.83,158.21"/>
    </edge>
    <edge id="44848319#0" from="258536420" to="597322135" priority="1" type="highway.footway" spreadType="center" shape="270.14,190.92 263.61,195.02 261.85,196.13">
        <lane id="44848319#0_0" index="0" allow="pedestrian" speed="2.78" length="3.48" width="5.00" shape="267.09,192.84 264.14,194.69"/>
    </edge>
    <edge id="44848319#1" from="597322135" to="1787190915" priority="1" type="highway.footway" spreadType="center" shape="261.85,196.13 218.29,238.14 147.45,306.46 94.14,358.10 23.47,426.57 0.00,448.97">
        <lane id="44848319#1_0" index="0" allow="pedestrian" speed="2.78" length="361.18" width="5.00" shape="259.82,198.09 218.29,238.14 147.45,306.46 94.14,358.10 23.47,426.57 0.00,448.97"/>
    </edge>
    <edge id="46724881#0" from="597322135" to="6828004037" priority="1" type="highway.footway" spreadType="center">
        <lane id="46724881#0_0" index="0" allow="pedestrian" speed="2.78" length="18.24" width="2.00" shape="264.34,199.44 275.30,214.01"/>
    </edge>
    <edge id="46724881#1" from="6828004037" to="597322151" priority="1" type="highway.footway" spreadType="center" shape="278.14,217.78 292.55,236.18 298.37,248.91 301.63,261.68 303.52,265.86 304.42,270.06 304.38,272.74 303.72,278.18 302.53,285.99 302.63,290.56 304.02,293.86 308.05,295.83 312.56,296.35">
        <lane id="46724881#1_0" index="0" allow="pedestrian" speed="2.78" length="87.79" width="2.00" shape="281.15,221.63 292.55,236.18 298.37,248.91 301.63,261.68 303.52,265.86 304.42,270.06 304.38,272.74 303.72,278.18 302.53,285.99 302.63,290.56 304.02,293.86 308.05,295.83 312.56,296.35"/>
    </edge>
    <edge id="533367157" from="258591673" to="258591666" priority="10" type="highway.tertiary" shape="232.32,150.84 206.92,133.65 178.11,114.15 155.01,96.17 123.84,63.05 107.99,43.21 80.12,0.00">
        <lane id="533367157_0" index="0" disallow="tram rail_urban rail rail_electric rail_fast ship container cable_car subway aircraft wheelchair scooter drone" speed="13.89" length="219.86" shape="233.24,153.39 206.02,134.98 177.17,115.45 153.93,97.35 122.63,64.10 106.69,44.15 78.78,0.87"/>
    </edge>
    <edge id="728796699#0" from="6828004034" to="6828004037" priority="1" type="highway.service" shape="264.72,231.72 274.67,221.47 278.14,217.78">
        <lane id="728796699#0_0" index="0" allow="pedestrian delivery bicycle" speed="5.56" length="16.33" shape="263.57,230.60 273.52,220.36 274.92,218.87"/>
    </edge>
    <edge id="728796699#1" from="6828004037" to="6828004036" priority="1" type="highway.service">
        <lane id="728796699#1_0" index="0" allow="pedestrian delivery bicycle" speed="5.56" length="2.33" shape="279.17,214.96 281.01,213.53"/>
    </edge>

    <junction id="1787190915" type="dead_end" x="0.00" y="448.97" incLanes="44848319#1_0" intLanes="" shape="1.73,450.78 -1.73,447.17"/>
    <junction id="2536611904" type="dead_end" x="315.48" y="259.44" incLanes="246652341_0" intLanes="" shape="315.52,259.42 312.63,260.79 318.54,258.76 315.42,259.45"/>
    <junction id="258534730" type="dead_end" x="328.66" y="136.73" incLanes="254768532_0" intLanes="" shape="321.66,138.61 323.15,141.44 325.71,143.36 327.95,140.07 329.02,137.79 328.93,136.50 327.67,136.21 325.25,136.91"/>
    <junction id="258536117" type="priority" x="264.10" y="182.02" incLanes="1244966291#1_0" intLanes=":258536117_0_0 :258536117_1_0" shape="263.42,184.32 266.31,182.94 265.15,180.36 264.88,179.39 264.79,178.40 264.86,177.19 265.09,175.61 261.77,176.07 261.57,176.67 261.42,176.79 261.23,176.81 261.01,176.71 260.76,176.50 258.52,178.79 260.61,180.63 261.36,181.27 262.03,181.98 262.69,182.93">
        <request index="0" response="00" foes="00" cont="0"/>
        <request index="1" response="00" foes="00" cont="0"/>
    </junction>
    <junction id="258536171" type="priority" x="275.21" y="159.61" incLanes="23855931_0 1244966291#2_0" intLanes=":258536171_0_0 :258536171_1_0" shape="277.38,160.74 276.63,157.63 274.08,157.96 273.16,157.84 272.25,157.59 271.14,157.28 269.67,156.95 269.08,160.09 269.56,160.30 269.64,160.45 269.63,160.65 269.50,160.88 269.28,161.14 270.92,164.06 272.93,162.22 273.77,161.73 274.69,161.39 275.85,161.10">
        <request index="0" response="10" foes="10" cont="0"/>
        <request index="1" response="00" foes="01" cont="0"/>
    </junction>
    <junction id="258536417" type="priority" x="299.54" y="180.28" incLanes="254768535_0 1244966291#4_0" intLanes=":258536417_0_0 :258536417_1_0" shape="304.79,174.73 302.05,173.07 301.58,173.62 301.39,173.66 301.22,173.56 301.07,173.30 300.95,172.89 297.64,172.71 298.30,175.94 298.41,177.10 298.32,178.27 298.03,179.64 297.52,181.44 300.58,182.37 301.73,179.37 302.31,178.38 302.97,177.44 303.78,176.30">
        <request index="0" response="10" foes="10" cont="0"/>
        <request index="1" response="00" foes="01" cont="0"/>
    </junction>
    <junction id="258536420" type="priority" x="270.14" y="190.92" incLanes="23855918#1_0 1244966291#0_0" intLanes=":258536420_0_0 :258536420_1_0" shape="272.07,197.85 274.90,196.31 274.65,195.76 274.70,195.59 274.87,195.49 275.15,195.47 275.56,195.52 277.18,192.56 274.96,192.06 273.37,191.47 272.17,190.71 271.09,189.70 269.91,188.37 268.36,186.65 266.02,188.82 266.44,189.52 266.46,189.85 266.36,190.15 266.12,190.44 265.76,190.72 268.42,194.95 269.32,194.96 269.89,195.32 270.54,195.92 271.26,196.76">
        <request index="0" response="10" foes="10" cont="0"/>
        <request index="1" response="00" foes="01" cont="0"/>
    </junction>
    <junction id="258591666" type="priority" x="80.12" y="0.00" incLanes="533367157_0" intLanes=":258591666_0_0" shape="80.12,0.00 77.44,1.73 80.12,0.00">
        <request index="0" response="0" foes="0" cont="0"/>
    </junction>
    <junction id="258591673" type="priority" x="232.32" y="150.84" incLanes="362695010_0 -533367157_0" intLanes=":258591673_0_0 :258591673_4_0 :258591673_2_0 :258591673_5_0" shape="238.71,159.36 240.95,157.07 239.14,155.17 238.65,154.53 238.44,154.11 238.51,153.90 238.86,153.90 239.54,150.77 238.12,150.48 237.63,150.35 237.16,150.16 236.62,149.86 235.93,149.42 232.34,154.72 234.82,156.29 235.70,156.83 236.54,157.42 237.49,158.21">
        <request index="0" response="0000" foes="1000" cont="0"/>
        <request index="1" response="0100" foes="0100" cont="1"/>
        <request index="2" response="0000" foes="0010" cont="0"/>
        <request index="3" response="0001" foes="0001" cont="1"/>
    </junction>
    <junction id="4212377835" type="priority" x="296.79" y="186.88" incLanes="1244966291#5_0" intLanes=":4212377835_0_0 :4212377835_1_0" shape="299.09,185.98 296.27,184.46 295.03,186.92 294.52,187.77 293.89,188.50 292.99,189.19 291.73,189.89 294.05,192.09 294.62,191.66 294.81,191.65 294.95,191.79 295.02,192.08 295.04,192.51 298.24,192.59 298.15,190.05 298.10,189.14 298.19,188.26 298.48,187.26">
        <request index="0" response="00" foes="00" cont="0"/>
        <request index="1" response="00" foes="00" cont="0"/>
    </junction>
    <junction id="597322135" type="dead_end" x="261.85" y="196.13" incLanes="44848319#0_0" intLanes="" shape="263.54,200.04 265.14,198.84 264.76,198.06 264.76,197.71 264.87,197.38 265.11,197.08 265.47,196.80 262.81,192.57 260.93,193.78 260.30,194.25 259.71,194.75 259.01,195.40 258.09,196.29 261.56,199.89 262.26,199.44 262.59,199.40 262.92,199.49 263.23,199.71"/>
    <junction id="597322151" type="dead_end" x="312.56" y="296.35" incLanes="46724881#1_0" intLanes="" shape="312.68,295.35 312.45,297.34"/>
    <junction id="6312913172" type="priority" x="283.79" y="158.59" incLanes="1244966291#3_0" intLanes=":6312913172_0_0 :6312913172_1_0" shape="288.89,161.87 289.75,158.67 289.25,158.25 289.18,158.05 289.24,157.85 289.41,157.66 289.71,157.49 288.31,154.61 286.05,155.89 285.24,156.36 284.41,156.71 283.37,156.92 281.92,156.99 281.93,160.19 284.64,160.23 285.59,160.35 286.51,160.63 287.55,161.12">
        <request index="0" response="00" foes="00" cont="0"/>
        <request index="1" response="00" foes="00" cont="0"/>
    </junction>
    <junction id="6828004034" type="priority" x="264.72" y="231.72" incLanes="-728796699#0_0" intLanes=":6828004034_0_0" shape="264.72,231.72 267.01,233.95 264.72,231.72">
        <request index="0" response="0" foes="0" cont="0"/>
    </junction>
    <junction id="6828004036" type="priority" x="284.55" y="212.81" incLanes="23855918#0_0 728796699#1_0" intLanes=":6828004036_0_0 :6828004036_1_0 :6828004036_2_0 :6828004036_3_0" shape="286.00,217.63 288.61,215.79 283.19,208.11 280.57,209.95 280.90,210.75 280.87,211.14 280.71,211.53 280.43,211.90 280.03,212.27 283.95,217.33 284.70,216.95 285.05,216.95 285.39,217.06 285.70,217.29">
        <request index="0" response="0000" foes="1000" cont="0"/>
        <request index="1" response="0000" foes="0100" cont="0"/>
        <request index="2" response="0010" foes="0010" cont="0"/>
        <request index="3" response="0001" foes="0001" cont="0"/>
    </junction>
    <junction id="6828004037" type="priority" x="278.14" y="217.78" incLanes="-728796699#1_0 46724881#0_0 728796699#0_0" intLanes=":6828004037_0_0 :6828004037_4_0 :6828004037_2_0 :6828004037_5_0" shape="280.36,222.24 281.94,221.01 281.50,220.17 281.46,219.78 281.55,219.42 281.77,219.07 282.11,218.75 278.19,213.69 277.43,214.07 277.07,214.08 276.73,213.97 276.41,213.75 276.10,213.41 274.50,214.61 274.86,215.55 274.81,216.06 274.61,216.60 274.25,217.17 273.75,217.77 278.41,222.16 279.09,221.68 279.41,221.63 279.74,221.71 280.05,221.91">
        <request index="0" response="0000" foes="1000" cont="0"/>
        <request index="1" response="0100" foes="0100" cont="1"/>
        <request index="2" response="0000" foes="0010" cont="0"/>
        <request index="3" response="0001" foes="0001" cont="1"/>
    </junction>

    <junction id=":258591673_4_0" type="internal" x="236.49" y="154.16" incLanes=":258591673_1_0 -533367157_0" intLanes=":258591673_2_0"/>
    <junction id=":258591673_5_0" type="internal" x="235.57" y="152.08" incLanes=":258591673_3_0 362695010_0" intLanes=":258591673_0_0"/>
    <junction id=":6828004037_4_0" type="internal" x="279.69" y="217.59" incLanes=":6828004037_1_0 728796699#0_0" intLanes=":6828004037_2_0"/>
    <junction id=":6828004037_5_0" type="internal" x="276.32" y="218.54" incLanes=":6828004037_3_0 -728796699#1_0" intLanes=":6828004037_0_0"/>

    <connection from="-533367157" to="23855931" fromLane="0" toLane="0" keepClear="0" via=":258591673_2_0" dir="s" state="M"/>
    <connection from="-533367157" to="533367157" fromLane="0" toLane="0" keepClear="0" via=":258591673_3_0" dir="t" state="m"/>
    <connection from="-728796699#0" to="728796699#0" fromLane="0" toLane="0" via=":6828004034_0_0" dir="t" state="M"/>
    <connection from="-728796699#1" to="-728796699#0" fromLane="0" toLane="0" keepClear="0" via=":6828004037_0_0" dir="s" state="M"/>
    <connection from="-728796699#1" to="728796699#1" fromLane="0" toLane="0" keepClear="0" via=":6828004037_1_0" dir="t" state="m"/>
    <connection from="1244966291#0" to="1244966291#1" fromLane="0" toLane="0" keepClear="0" via=":258536420_1_0" dir="s" state="M"/>
    <connection from="1244966291#1" to="362695010" fromLane="0" toLane="0" via=":258536117_0_0" dir="R" state="M"/>
    <connection from="1244966291#1" to="1244966291#2" fromLane="0" toLane="0" via=":258536117_1_0" dir="s" state="M"/>
    <connection from="1244966291#2" to="1244966291#3" fromLane="0" toLane="0" keepClear="0" via=":258536171_1_0" dir="s" state="M"/>
    <connection from="1244966291#3" to="254768532" fromLane="0" toLane="0" via=":6312913172_0_0" dir="R" state="M"/>
    <connection from="1244966291#3" to="1244966291#4" fromLane="0" toLane="0" via=":6312913172_1_0" dir="s" state="M"/>
    <connection from="1244966291#4" to="1244966291#5" fromLane="0" toLane="0" keepClear="0" via=":258536417_1_0" dir="s" state="M"/>
    <connection from="1244966291#5" to="246652341" fromLane="0" toLane="0" via=":4212377835_0_0" dir="R" state="M"/>
    <connection from="1244966291#5" to="1244966291#0" fromLane="0" toLane="0" via=":4212377835_1_0" dir="s" state="M"/>
    <connection from="23855918#0" to="-728796699#1" fromLane="0" toLane="0" keepClear="0" via=":6828004036_0_0" dir="r" state="M"/>
    <connection from="23855918#0" to="23855918#1" fromLane="0" toLane="0" keepClear="0" via=":6828004036_1_0" dir="s" state="M"/>