<?xml version="1.0" encoding="UTF-8"?>

<!-- generated on 2024-09-03 01:37:13 by Eclipse SUMO netconvert Version 1.20.0
<configuration xmlns:xsi="http://www.w3.org/2001/XMLSchema-instance" xsi:noNamespaceSchemaLocation="http://sumo.dlr.de/xsd/netconvertConfiguration.xsd">

    <input>
        <osm-files value="train_files/intersection/easy/osm_files/map(96).osm"/>
    </input>

    <output>
        <output-file value="train_files/intersection/easy/outputs/map(96)_dict/map(96)/map(96).net.xml"/>
    </output>

    <projection>
        <proj.utm value="true"/>
    </projection>

    <building_defaults>
        <default.junctions.keep-clear value="false"/>
    </building_defaults>

</configuration>
-->

<net version="1.20" junctionCornerDetail="5" limitTurnSpeed="5.50" xmlns:xsi="http://www.w3.org/2001/XMLSchema-instance" xsi:noNamespaceSchemaLocation="http://sumo.dlr.de/xsd/net_file.xsd">

    <location netOffset="-352803.08,-5890261.73" convBoundary="0.00,0.00,264.92,232.42" origBoundary="24.799258,53.141448,24.803183,53.143508" projParameter="+proj=utm +zone=35 +ellps=WGS84 +datum=WGS84 +units=m +no_defs"/>

    <type id="highway.footway" priority="1" numLanes="1" speed="2.78" allow="pedestrian" oneway="1" width="2.00"/>
    <type id="highway.primary" priority="12" numLanes="2" speed="27.78" disallow="tram rail_urban rail rail_electric rail_fast ship container cable_car subway aircraft wheelchair scooter drone" oneway="0"/>
    <type id="highway.primary_link" priority="7" numLanes="1" speed="22.22" disallow="tram rail_urban rail rail_electric rail_fast ship container cable_car subway aircraft wheelchair scooter drone" oneway="0"/>
    <type id="highway.service" priority="1" numLanes="1" speed="5.56" allow="pedestrian delivery bicycle" oneway="0"/>

    <edge id=":275447405_0" function="internal">
        <lane id=":275447405_0_0" index="0" disallow="tram rail_urban rail rail_electric rail_fast ship container cable_car subway aircraft wheelchair scooter drone" speed="27.78" length="9.23" shape="138.84,126.66 136.47,125.48 135.18,123.98 133.89,122.50 131.51,121.35"/>
    </edge>
    <edge id=":275447405_1" function="internal">
        <lane id=":275447405_1_0" index="0" disallow="tram rail_urban rail rail_electric rail_fast ship container cable_car subway aircraft wheelchair scooter drone" speed="7.47" length="1.46" shape="139.71,123.58 138.67,122.56"/>
    </edge>
    <edge id=":275447405_2" function="internal">
        <lane id=":275447405_2_0" index="0" disallow="tram rail_urban rail rail_electric rail_fast ship container cable_car subway aircraft wheelchair scooter drone" speed="3.65" length="1.44" shape="139.71,123.58 138.76,122.50"/>
    </edge>
    <edge id=":275447405_9" function="internal">
        <lane id=":275447405_9_0" index="0" disallow="tram rail_urban rail rail_electric rail_fast ship container cable_car subway aircraft wheelchair scooter drone" speed="7.47" length="11.65" shape="138.67,122.56 138.59,122.48 138.42,120.07 139.20,116.35 140.92,111.32"/>
    </edge>
    <edge id=":275447405_10" function="internal">
        <lane id=":275447405_10_0" index="0" disallow="tram rail_urban rail rail_electric rail_fast ship container cable_car subway aircraft wheelchair scooter drone" speed="3.65" length="3.23" shape="138.76,122.50 138.58,121.63 139.17,120.96 140.53,120.49"/>
    </edge>
    <edge id=":275447405_3" function="internal">
        <lane id=":275447405_3_0" index="0" disallow="tram rail_urban rail rail_electric rail_fast ship container cable_car subway aircraft wheelchair scooter drone" speed="27.78" length="8.52" shape="133.16,115.17 141.40,117.41"/>
        <lane id=":275447405_3_1" index="1" disallow="tram rail_urban rail rail_electric rail_fast ship container cable_car subway aircraft wheelchair scooter drone" speed="27.78" length="8.52" shape="132.33,118.26 140.53,120.49"/>
    </edge>
    <edge id=":275447405_5" function="internal">
        <lane id=":275447405_5_0" index="0" disallow="tram rail_urban rail rail_electric rail_fast ship container cable_car subway aircraft wheelchair scooter drone" speed="3.65" length="1.44" shape="132.33,118.26 133.29,119.34"/>
    </edge>
    <edge id=":275447405_11" function="internal">
        <lane id=":275447405_11_0" index="0" disallow="tram rail_urban rail rail_electric rail_fast ship container cable_car subway aircraft wheelchair scooter drone" speed="3.65" length="3.23" shape="133.29,119.34 133.47,120.22 132.88,120.89 131.51,121.35"/>
    </edge>
    <edge id=":275447405_6" function="internal">
        <lane id=":275447405_6_0" index="0" disallow="tram rail_urban rail rail_electric rail_fast ship container cable_car subway aircraft wheelchair scooter drone" speed="7.03" length="11.23" shape="133.81,130.98 134.71,127.27 134.63,124.44 133.56,122.46 131.51,121.35"/>
    </edge>
    <edge id=":275447405_7" function="internal">
        <lane id=":275447405_7_0" index="0" disallow="tram rail_urban rail rail_electric rail_fast ship container cable_car subway aircraft wheelchair scooter drone" speed="18.06" length="20.90" shape="133.81,130.98 140.92,111.32"/>
    </edge>
    <edge id=":275447405_8" function="internal">
        <lane id=":275447405_8_0" index="0" disallow="tram rail_urban rail rail_electric rail_fast ship container cable_car subway aircraft wheelchair scooter drone" speed="7.84" length="13.06" shape="133.81,130.98 135.66,126.08 137.40,122.70 139.02,120.84 140.53,120.49"/>
    </edge>
    <edge id=":275447416_0" function="internal">
        <lane id=":275447416_0_0" index="0" disallow="tram rail_urban rail rail_electric rail_fast ship container cable_car subway aircraft wheelchair scooter drone" speed="3.65" length="4.67" shape="265.36,155.76 266.30,156.85 266.46,157.73 265.86,158.39 264.49,158.84"/>
    </edge>
    <edge id=":5057029883_0" function="internal">
        <lane id=":5057029883_0_0" index="0" disallow="tram rail_urban rail rail_electric rail_fast ship container cable_car subway aircraft wheelchair scooter drone" speed="3.65" length="4.67" shape="103.86,232.97 102.70,233.82 101.81,233.93 101.20,233.28 100.85,231.88"/>
    </edge>
    <edge id=":5068998483_0" function="internal">
        <lane id=":5068998483_0_0" index="0" disallow="tram rail_urban rail rail_electric rail_fast ship container cable_car subway aircraft wheelchair scooter drone" speed="3.65" length="4.67" shape="-0.41,86.27 -1.37,85.19 -1.55,84.31 -0.95,83.64 0.41,83.18"/>
    </edge>
    <edge id=":6966688991_0" function="internal">
        <lane id=":6966688991_0_0" index="0" disallow="tram rail_urban rail rail_electric rail_fast ship container cable_car subway aircraft wheelchair scooter drone" speed="19.54" length="12.95" shape="138.61,106.57 141.15,104.23 143.31,102.04 145.13,99.62 146.63,96.57"/>
    </edge>
    <edge id=":6966688991_1" function="internal">
        <lane id=":6966688991_1_0" index="0" disallow="tram rail_urban rail rail_electric rail_fast ship container cable_car subway aircraft wheelchair scooter drone" speed="27.78" length="12.71" shape="142.04,108.43 146.63,96.57"/>
    </edge>
    <edge id=":6966688996_0" function="internal">
        <lane id=":6966688996_0_0" index="0" disallow="tram rail_urban rail rail_electric rail_fast ship container cable_car subway aircraft wheelchair scooter drone" speed="14.90" length="8.62" shape="120.50,123.80 118.59,122.12 117.14,121.11 115.51,120.44 113.06,119.75"/>
    </edge>
    <edge id=":6966688996_1" function="internal">
        <lane id=":6966688996_1_0" index="0" disallow="tram rail_urban rail rail_electric rail_fast ship container cable_car subway aircraft wheelchair scooter drone" speed="27.78" length="18.04" shape="131.32,121.30 113.88,116.66"/>
    </edge>
    <edge id=":6966688996_2" function="internal">
        <lane id=":6966688996_2_0" index="0" disallow="tram rail_urban rail rail_electric rail_fast ship container cable_car subway aircraft wheelchair scooter drone" speed="14.21" length="18.12" shape="116.35,107.38 122.09,109.02 126.71,110.22 130.54,110.54 133.93,109.53"/>
    </edge>
    <edge id=":6966688996_3" function="internal">
        <lane id=":6966688996_3_0" index="0" disallow="tram rail_urban rail rail_electric rail_fast ship container cable_car subway aircraft wheelchair scooter drone" speed="27.78" length="18.42" shape="116.35,107.38 121.43,109.26 124.65,111.25 127.88,113.25 132.96,115.12"/>
        <lane id=":6966688996_3_1" index="1" disallow="tram rail_urban rail rail_electric rail_fast ship container cable_car subway aircraft wheelchair scooter drone" speed="27.78" length="18.42" shape="115.52,110.48 120.61,112.35 123.83,114.34 127.05,116.34 132.14,118.21"/>
    </edge>
    <edge id=":6966688996_5" function="internal">
        <lane id=":6966688996_5_0" index="0" disallow="tram rail_urban rail rail_electric rail_fast ship container cable_car subway aircraft wheelchair scooter drone" speed="3.65" length="1.44" shape="114.70,113.57 115.66,114.65"/>
    </edge>
    <edge id=":6966688996_6" function="internal">
        <lane id=":6966688996_6_0" index="0" disallow="tram rail_urban rail rail_electric rail_fast ship container cable_car subway aircraft wheelchair scooter drone" speed="3.65" length="3.23" shape="115.66,114.65 115.84,115.53 115.24,116.20 113.88,116.66"/>
    </edge>
    <edge id=":6966689001_0" function="internal">
        <lane id=":6966689001_0_0" index="0" disallow="tram rail_urban rail rail_electric rail_fast ship container cable_car subway aircraft wheelchair scooter drone" speed="8.33" length="12.52" shape="127.78,151.48 128.34,148.20 128.26,145.32 127.88,142.41 127.51,139.05"/>
    </edge>
    <edge id=":6966689001_1" function="internal">
        <lane id=":6966689001_1_0" index="0" disallow="tram rail_urban rail rail_electric rail_fast ship container cable_car subway aircraft wheelchair scooter drone" speed="8.33" length="12.52" shape="127.78,151.48 131.15,139.42"/>
    </edge>
    <edge id=":6966689007_0" function="internal">
        <lane id=":6966689007_0_0" index="0" disallow="tram rail_urban rail rail_electric rail_fast ship container cable_car subway aircraft wheelchair scooter drone" speed="18.38" length="18.85" shape="169.79,138.73 163.82,137.00 159.04,135.77 155.04,135.29 151.41,135.81"/>
    </edge>
    <edge id=":6966689007_1" function="internal">
        <lane id=":6966689007_1_0" index="0" disallow="tram rail_urban rail rail_electric rail_fast ship container cable_car subway aircraft wheelchair scooter drone" speed="27.78" length="19.91" shape="169.79,138.73 164.31,136.66 160.82,134.53 157.33,132.40 151.84,130.33"/>
        <lane id=":6966689007_1_1" index="1" disallow="tram rail_urban rail rail_electric rail_fast ship container cable_car subway aircraft wheelchair scooter drone" speed="27.78" length="19.91" shape="170.66,135.65 165.18,133.58 161.69,131.45 158.20,129.32 152.71,127.25"/>
    </edge>
    <edge id=":6966689007_3" function="internal">
        <lane id=":6966689007_3_0" index="0" disallow="tram rail_urban rail rail_electric rail_fast ship container cable_car subway aircraft wheelchair scooter drone" speed="3.65" length="1.44" shape="171.53,132.57 170.60,131.48"/>
    </edge>
    <edge id=":6966689007_6" function="internal">
        <lane id=":6966689007_6_0" index="0" disallow="tram rail_urban rail rail_electric rail_fast ship container cable_car subway aircraft wheelchair scooter drone" speed="3.65" length="3.23" shape="170.60,131.48 170.43,130.60 171.03,129.94 172.40,129.50"/>
    </edge>
    <edge id=":6966689007_4" function="internal">
        <lane id=":6966689007_4_0" index="0" disallow="tram rail_urban rail rail_electric rail_fast ship container cable_car subway aircraft wheelchair scooter drone" speed="18.06" length="8.46" shape="165.64,122.91 167.74,124.27 169.25,125.10 170.87,125.71 173.27,126.42"/>
    </edge>
    <edge id=":6966689007_5" function="internal">
        <lane id=":6966689007_5_0" index="0" disallow="tram rail_urban rail rail_electric rail_fast ship container cable_car subway aircraft wheelchair scooter drone" speed="27.78" length="19.56" shape="153.58,124.17 172.40,129.50"/>
    </edge>
    <edge id=":6966689017_0" function="internal">
        <lane id=":6966689017_0_0" index="0" disallow="tram rail_urban rail rail_electric rail_fast ship container cable_car subway aircraft wheelchair scooter drone" speed="14.48" length="14.38" shape="141.37,141.26 138.54,143.53 136.28,146.23 134.48,149.30 133.05,152.68"/>
    </edge>
    <edge id=":6966689017_1" function="internal">
        <lane id=":6966689017_1_0" index="0" disallow="tram rail_urban rail rail_electric rail_fast ship container cable_car subway aircraft wheelchair scooter drone" speed="27.78" length="14.26" shape="137.62,139.18 133.05,152.68"/>
    </edge>
    <edge id=":6966689018_0" function="internal">
        <lane id=":6966689018_0_0" index="0" disallow="tram rail_urban rail rail_electric rail_fast ship container cable_car subway aircraft wheelchair scooter drone" speed="27.78" length="8.68" shape="147.39,129.08 139.04,126.72"/>
        <lane id=":6966689018_0_1" index="1" disallow="tram rail_urban rail rail_electric rail_fast ship container cable_car subway aircraft wheelchair scooter drone" speed="27.78" length="8.68" shape="148.26,126.00 139.90,123.64"/>
    </edge>
    <edge id=":6966689018_2" function="internal">
        <lane id=":6966689018_2_0" index="0" disallow="tram rail_urban rail rail_electric rail_fast ship container cable_car subway aircraft wheelchair scooter drone" speed="3.65" length="1.44" shape="148.26,126.00 147.32,124.90"/>
    </edge>
    <edge id=":6966689018_8" function="internal">
        <lane id=":6966689018_8_0" index="0" disallow="tram rail_urban rail rail_electric rail_fast ship container cable_car subway aircraft wheelchair scooter drone" speed="3.65" length="3.23" shape="147.32,124.90 147.15,124.02 147.76,123.36 149.13,122.92"/>
    </edge>
    <edge id=":6966689018_3" function="internal">
        <lane id=":6966689018_3_0" index="0" disallow="tram rail_urban rail rail_electric rail_fast ship container cable_car subway aircraft wheelchair scooter drone" speed="18.06" length="20.79" shape="146.56,113.17 139.76,132.82"/>
    </edge>
    <edge id=":6966689018_4" function="internal">
        <lane id=":6966689018_4_0" index="0" disallow="tram rail_urban rail rail_electric rail_fast ship container cable_car subway aircraft wheelchair scooter drone" speed="7.86" length="12.92" shape="146.56,113.17 144.64,118.03 142.89,121.39 141.31,123.26 139.90,123.64"/>
    </edge>
    <edge id=":6966689018_5" function="internal">
        <lane id=":6966689018_5_0" index="0" disallow="tram rail_urban rail rail_electric rail_fast ship container cable_car subway aircraft wheelchair scooter drone" speed="27.78" length="9.48" shape="141.59,117.46 144.03,118.67 145.36,120.19 146.69,121.71 149.13,122.92"/>
    </edge>
    <edge id=":6966689018_6" function="internal">
        <lane id=":6966689018_6_0" index="0" disallow="tram rail_urban rail rail_electric rail_fast ship container cable_car subway aircraft wheelchair scooter drone" speed="7.54" length="1.48" shape="140.73,120.54 141.74,121.62"/>
    </edge>
    <edge id=":6966689018_7" function="internal">
        <lane id=":6966689018_7_0" index="0" disallow="tram rail_urban rail rail_electric rail_fast ship container cable_car subway aircraft wheelchair scooter drone" speed="3.65" length="1.44" shape="140.73,120.54 141.68,121.63"/>
    </edge>
    <edge id=":6966689018_9" function="internal">
        <lane id=":6966689018_9_0" index="0" disallow="tram rail_urban rail rail_electric rail_fast ship container cable_car subway aircraft wheelchair scooter drone" speed="7.54" length="11.48" shape="141.74,121.62 141.92,124.02 141.26,127.75 139.76,132.82"/>
    </edge>
    <edge id=":6966689018_10" function="internal">
        <lane id=":6966689018_10_0" index="0" disallow="tram rail_urban rail rail_electric rail_fast ship container cable_car subway aircraft wheelchair scooter drone" speed="3.65" length="3.23" shape="141.68,121.63 141.86,122.50 141.27,123.17 139.90,123.64"/>
    </edge>
    <edge id=":6966689019_0" function="internal">
        <lane id=":6966689019_0_0" index="0" disallow="tram rail_urban rail rail_electric rail_fast ship container cable_car subway aircraft wheelchair scooter drone" speed="8.33" length="7.34" shape="153.41,98.98 152.81,101.04 152.67,102.52 152.84,104.04 153.19,106.19"/>
    </edge>
    <edge id=":6966689019_1" function="internal">
        <lane id=":6966689019_1_0" index="0" disallow="tram rail_urban rail rail_electric rail_fast ship container cable_car subway aircraft wheelchair scooter drone" speed="8.33" length="7.64" shape="150.38,97.94 149.88,100.13 149.87,101.71 149.86,103.28 149.32,105.46"/>
    </edge>
    <edge id=":6966689020_0" function="internal">
        <lane id=":6966689020_0_0" index="0" disallow="tram rail_urban rail rail_electric rail_fast ship container cable_car subway aircraft wheelchair scooter drone" speed="3.60" length="4.01" shape="161.39,59.67 162.48,59.09 163.25,59.11 163.69,59.73 163.82,60.96"/>
    </edge>
    <edge id=":6966689021_0" function="internal">
        <lane id=":6966689021_0_0" index="0" disallow="tram rail_urban rail rail_electric rail_fast ship container cable_car subway aircraft wheelchair scooter drone" speed="22.22" length="0.32" shape="125.45,172.95 125.42,173.04 125.41,173.10 125.40,173.17 125.38,173.26"/>
    </edge>
    <edge id=":6966689021_1" function="internal">
        <lane id=":6966689021_1_0" index="0" disallow="tram rail_urban rail rail_electric rail_fast ship container cable_car subway aircraft wheelchair scooter drone" speed="8.33" length="0.10" shape="122.36,172.21 122.40,172.22"/>
    </edge>

    <edge id="-518422185" from="6966689021" to="5057029883" priority="12" type="highway.primary" shape="123.92,172.58 121.83,178.57 102.36,232.42">
        <lane id="-518422185_0" index="0" disallow="tram rail_urban rail rail_electric rail_fast ship container cable_car subway aircraft wheelchair scooter drone" speed="16.67" length="63.47" shape="125.38,173.26 123.33,179.10 103.86,232.97"/>
        <param key="ref" value="Р50"/>
    </edge>
    <edge id="-519964013" from="6966688996" to="5068998483" priority="12" type="highway.primary">
        <lane id="-519964013_0" index="0" disallow="tram rail_urban rail rail_electric rail_fast ship container cable_car subway aircraft wheelchair scooter drone" speed="27.78" length="118.26" shape="113.06,119.75 -1.23,89.36"/>
        <lane id="-519964013_1" index="1" disallow="tram rail_urban rail rail_electric rail_fast ship container cable_car subway aircraft wheelchair scooter drone" speed="27.78" length="118.26" shape="113.88,116.66 -0.41,86.27"/>
        <param key="ref" value="Р99"/>
    </edge>
    <edge id="-519964020" from="6966689018" to="275447405" priority="12" type="highway.primary">
        <lane id="-519964020_0" index="0" disallow="tram rail_urban rail rail_electric rail_fast ship container cable_car subway aircraft wheelchair scooter drone" speed="27.78" length="0.20" shape="139.04,126.72 138.84,126.66"/>
        <lane id="-519964020_1" index="1" disallow="tram rail_urban rail rail_electric rail_fast ship container cable_car subway aircraft wheelchair scooter drone" speed="27.78" length="0.20" shape="139.90,123.64 139.71,123.58"/>
        <param key="ref" value="Р99"/>
    </edge>
    <edge id="-744357577" from="6966689007" to="6966689018" priority="12" type="highway.primary">
        <lane id="-744357577_0" index="0" disallow="tram rail_urban rail rail_electric rail_fast ship container cable_car subway aircraft wheelchair scooter drone" speed="27.78" length="4.62" shape="151.84,130.33 147.39,129.08"/>
        <lane id="-744357577_1" index="1" disallow="tram rail_urban rail rail_electric rail_fast ship container cable_car subway aircraft wheelchair scooter drone" speed="27.78" length="4.62" shape="152.71,127.25 148.26,126.00"/>
        <param key="ref" value="Р99"/>
    </edge>
    <edge id="-744357581" from="275447416" to="6966689007" priority="12" type="highway.primary">
        <lane id="-744357581_0" index="0" disallow="tram rail_urban rail rail_electric rail_fast ship container cable_car subway aircraft wheelchair scooter drone" speed="27.78" length="96.59" shape="262.75,164.99 169.79,138.73"/>
        <lane id="-744357581_1" index="1" disallow="tram rail_urban rail rail_electric rail_fast ship container cable_car subway aircraft wheelchair scooter drone" speed="27.78" length="96.59" shape="263.62,161.91 170.66,135.65"/>
        <lane id="-744357581_2" index="2" disallow="tram rail_urban rail rail_electric rail_fast ship container cable_car subway aircraft wheelchair scooter drone" speed="27.78" length="96.59" shape="264.49,158.84 171.53,132.57"/>
        <param key="ref" value="Р99"/>
    </edge>
    <edge id="-744357582" from="275447405" to="6966688996" priority="12" type="highway.primary">
        <lane id="-744357582_0" index="0" disallow="tram rail_urban rail rail_electric rail_fast ship container cable_car subway aircraft wheelchair scooter drone" speed="27.78" length="0.20" shape="131.51,121.35 131.32,121.30"/>
        <param key="ref" value="Р99"/>
    </edge>
    <edge id="1188023285" from="11031873663" to="11031873657" priority="1" type="highway.service" spreadType="center" shape="230.70,85.36 217.40,89.12 211.49,88.68 205.69,85.62 195.85,71.37 196.32,66.53 204.15,55.51">
        <lane id="1188023285_0" index="0" allow="pedestrian delivery bicycle" speed="2.78" length="62.00" shape="230.70,85.36 217.40,89.12 211.49,88.68 205.69,85.62 195.85,71.37 196.32,66.53 204.15,55.51"/>
    </edge>
    <edge id="503373289" from="6966688991" to="6966689020" priority="12" type="highway.primary" spreadType="center" shape="146.02,98.12 152.19,82.19 156.07,72.50 159.45,66.31 161.58,59.03">
        <lane id="503373289_0" index="0" disallow="tram rail_urban rail rail_electric rail_fast ship container cable_car subway aircraft wheelchair scooter drone" speed="27.78" length="39.83" shape="146.63,96.57 152.19,82.19 156.07,72.50 159.45,66.31 161.39,59.67"/>
        <param key="ref" value="Р50"/>
    </edge>
    <edge id="518422185" from="5057029883" to="6966689021" priority="12" type="highway.primary" shape="102.36,232.42 121.83,178.57 123.92,172.58">
        <lane id="518422185_0" index="0" disallow="tram rail_urban rail rail_electric rail_fast ship container cable_car subway aircraft wheelchair scooter drone" speed="8.33" length="63.43" shape="100.85,231.88 120.32,178.02 122.36,172.21"/>
        <param key="ref" value="Р50"/>
    </edge>
    <edge id="519964013" from="5068998483" to="6966688996" priority="12" type="highway.primary">
        <lane id="519964013_0" index="0" disallow="tram rail_urban rail rail_electric rail_fast ship container cable_car subway aircraft wheelchair scooter drone" speed="27.78" length="118.26" shape="2.06,76.99 116.35,107.38"/>
        <lane id="519964013_1" index="1" disallow="tram rail_urban rail rail_electric rail_fast ship container cable_car subway aircraft wheelchair scooter drone" speed="27.78" length="118.26" shape="1.23,80.08 115.52,110.48"/>
        <lane id="519964013_2" index="2" disallow="tram rail_urban rail rail_electric rail_fast ship container cable_car subway aircraft wheelchair scooter drone" speed="27.78" length="118.26" shape="0.41,83.18 114.70,113.57"/>
        <param key="ref" value="Р99"/>
    </edge>
    <edge id="519964020" from="275447405" to="6966689018" priority="12" type="highway.primary">
        <lane id="519964020_0" index="0" disallow="tram rail_urban rail rail_electric rail_fast ship container cable_car subway aircraft wheelchair scooter drone" speed="27.78" length="0.20" shape="141.40,117.41 141.59,117.46"/>
        <lane id="519964020_1" index="1" disallow="tram rail_urban rail rail_electric rail_fast ship container cable_car subway aircraft wheelchair scooter drone" speed="27.78" length="0.20" shape="140.53,120.49 140.73,120.54"/>
        <param key="ref" value="Р99"/>
    </edge>
    <edge id="657509035" from="9694424722" to="6684368507" priority="1" type="highway.footway" spreadType="center" shape="209.11,2.37 202.63,0.00 200.45,6.71 187.00,44.11 185.69,47.78 182.42,47.67 178.79,48.97 175.72,51.48 173.99,53.77 172.27,56.17 168.45,68.88">
        <lane id="657509035_0" index="0" allow="pedestrian" speed="2.78" length="87.78" width="2.00" shape="209.11,2.37 202.63,0.00 200.45,6.71 187.00,44.11 185.69,47.78 182.42,47.67 178.79,48.97 175.72,51.48 173.99,53.77 172.27,56.17 168.45,68.88"/>
    </edge>
    <edge id="744357577" from="6966689018" to="6966689007" priority="12" type="highway.primary">
        <lane id="744357577_0" index="0" disallow="tram rail_urban rail rail_electric rail_fast ship container cable_car subway aircraft wheelchair scooter drone" speed="27.78" length="4.62" shape="149.13,122.92 153.58,124.17"/>
        <param key="ref" value="Р99"/>
    </edge>
    <edge id="744357578" from="6966689019" to="6966689018" priority="12" type="highway.primary" spreadType="center" shape="153.33,94.26 148.14,108.77 143.09,122.87">
        <lane id="744357578_0" index="0" disallow="tram rail_urban rail rail_electric rail_fast ship container cable_car subway aircraft wheelchair scooter drone" speed="8.33" length="8.19" shape="149.32,105.46 148.14,108.77 146.56,113.17"/>
        <param key="ref" value="Р50"/>
    </edge>
    <edge id="744357579#0" from="6966689018" to="6966689017" priority="12" type="highway.primary" spreadType="center">
        <lane id="744357579#0_0" index="0" disallow="tram rail_urban rail rail_electric rail_fast ship container cable_car subway aircraft wheelchair scooter drone" speed="27.78" length="6.71" shape="139.76,132.82 137.62,139.18"/>
        <param key="ref" value="Р50"/>
    </edge>
    <edge id="744357579#1" from="6966689017" to="6966689021" priority="12" type="highway.primary" spreadType="center" shape="133.62,151.11 127.91,166.87 125.23,173.50">
        <lane id="744357579#1_0" index="0" disallow="tram rail_urban rail rail_electric rail_fast ship container cable_car subway aircraft wheelchair scooter drone" speed="27.78" length="21.64" shape="133.05,152.68 127.91,166.87 125.45,172.95"/>
        <param key="ref" value="Р50"/>
    </edge>
    <edge id="744357580" from="275447405" to="6966688991" priority="12" type="highway.primary" spreadType="center">
        <lane id="744357580_0" index="0" disallow="tram rail_urban rail rail_electric rail_fast ship container cable_car subway aircraft wheelchair scooter drone" speed="27.78" length="3.10" shape="140.92,111.32 142.04,108.43"/>
        <param key="ref" value="Р50"/>
    </edge>
    <edge id="744357581" from="6966689007" to="275447416" priority="12" type="highway.primary">
        <lane id="744357581_0" index="0" disallow="tram rail_urban rail rail_electric rail_fast ship container cable_car subway aircraft wheelchair scooter drone" speed="27.78" length="96.59" shape="173.27,126.42 266.23,152.68"/>
        <lane id="744357581_1" index="1" disallow="tram rail_urban rail rail_electric rail_fast ship container cable_car subway aircraft wheelchair scooter drone" speed="27.78" length="96.59" shape="172.40,129.50 265.36,155.76"/>
        <param key="ref" value="Р99"/>
    </edge>
    <edge id="744357582" from="6966688996" to="275447405" priority="12" type="highway.primary">
        <lane id="744357582_0" index="0" disallow="tram rail_urban rail rail_electric rail_fast ship container cable_car subway aircraft wheelchair scooter drone" speed="27.78" length="0.20" shape="132.96,115.12 133.16,115.17"/>
        <lane id="744357582_1" index="1" disallow="tram rail_urban rail rail_electric rail_fast ship container cable_car subway aircraft wheelchair scooter drone" speed="27.78" length="0.20" shape="132.14,118.21 132.33,118.26"/>
        <param key="ref" value="Р99"/>
    </edge>
    <edge id="744357583" from="6966688996" to="6966688991" priority="7" type="highway.primary_link" spreadType="center" shape="108.94,113.69 125.95,111.76 131.84,110.68 137.67,107.45 143.51,102.00 146.02,98.12">
        <lane id="744357583_0" index="0" disallow="tram rail_urban rail rail_electric rail_fast ship container cable_car subway aircraft wheelchair scooter drone" speed="22.22" length="5.57" shape="133.93,109.53 137.67,107.45 138.61,106.57"/>
    </edge>
    <edge id="744357584" from="6966689019" to="6966689007" priority="7" type="highway.primary_link" spreadType="center" shape="153.33,94.26 152.70,102.87 153.72,109.74 157.23,115.99 162.68,120.94 182.21,133.93">
        <lane id="744357584_0" index="0" disallow="tram rail_urban rail rail_electric rail_fast ship container cable_car subway aircraft wheelchair scooter drone" speed="8.33" length="21.68" shape="153.19,106.19 153.72,109.74 157.23,115.99 162.68,120.94 165.64,122.91"/>
    </edge>
    <edge id="744357585" from="6966689001" to="6966688996" priority="7" type="highway.primary_link" spreadType="center" shape="128.25,149.77 127.34,136.62 124.99,129.96 121.87,125.05 115.13,118.90 108.94,113.69">
        <lane id="744357585_0" index="0" disallow="tram rail_urban rail rail_electric rail_fast ship container cable_car subway aircraft wheelchair scooter drone" speed="8.33" length="17.17" shape="127.51,139.05 127.34,136.62 124.99,129.96 121.87,125.05 120.50,123.80"/>
    </edge>
    <edge id="744357586" from="6966689007" to="6966689017" priority="7" type="highway.primary_link" spreadType="center" shape="182.21,133.93 165.76,133.64 155.74,134.49 148.26,136.78 139.72,142.33 136.71,146.27 133.62,151.11">
        <lane id="744357586_0" index="0" disallow="tram rail_urban rail rail_electric rail_fast ship container cable_car subway aircraft wheelchair scooter drone" speed="22.22" length="11.52" shape="151.41,135.81 148.26,136.78 141.37,141.26"/>
    </edge>