<?xml version="1.0" encoding="UTF-8"?>

<!-- generated on 2024-09-03 01:38:47 by Eclipse SUMO netconvert Version 1.20.0
<configuration xmlns:xsi="http://www.w3.org/2001/XMLSchema-instance" xsi:noNamespaceSchemaLocation="http://sumo.dlr.de/xsd/netconvertConfiguration.xsd">

    <input>
        <osm-files value="train_files/intersection/hard/osm_files/map(81).osm"/>
    </input>

    <output>
        <output-file value="train_files/intersection/hard/outputs/map(81)_dict/map(81)/map(81).net.xml"/>
    </output>

    <projection>
        <proj.utm value="true"/>
    </projection>

    <building_defaults>
        <default.junctions.keep-clear value="false"/>
    </building_defaults>

</configuration>
-->

<net version="1.20" junctionCornerDetail="5" limitTurnSpeed="5.50" xmlns:xsi="http://www.w3.org/2001/XMLSchema-instance" xsi:noNamespaceSchemaLocation="http://sumo.dlr.de/xsd/net_file.xsd">

    <location netOffset="-404846.41,-5757717.98" convBoundary="0.00,0.00,763.42,577.93" origBoundary="7.614922,51.962016,7.626032,51.967296" projParameter="+proj=utm +zone=32 +ellps=WGS84 +datum=WGS84 +units=m +no_defs"/>

    <type id="highway.cycleway" priority="1" numLanes="1" speed="5.56" allow="bicycle" oneway="0" width="2.00"/>
    <type id="highway.footway" priority="1" numLanes="1" speed="2.78" allow="pedestrian" oneway="1" width="2.00"/>
    <type id="highway.path" priority="1" numLanes="1" speed="5.56" allow="pedestrian bicycle" oneway="0" width="2.00"/>
    <type id="highway.residential" priority="3" numLanes="1" speed="13.89" disallow="tram rail_urban rail rail_electric rail_fast ship container cable_car subway aircraft wheelchair scooter drone" oneway="0"/>
    <type id="highway.secondary" priority="11" numLanes="1" speed="27.78" disallow="tram rail_urban rail rail_electric rail_fast ship container cable_car subway aircraft wheelchair scooter drone" oneway="0"/>
    <type id="highway.secondary_link" priority="6" numLanes="1" speed="22.22" disallow="tram rail_urban rail rail_electric rail_fast ship container cable_car subway aircraft wheelchair scooter drone" oneway="0"/>
    <type id="highway.service" priority="1" numLanes="1" speed="5.56" allow="pedestrian delivery bicycle" oneway="0"/>
    <type id="highway.steps" priority="1" numLanes="1" speed="1.39" allow="pedestrian" oneway="1" width="2.00"/>

    <edge id=":1012053506_0" function="internal">
        <lane id=":1012053506_0_0" index="0" allow="delivery bicycle" speed="5.08" length="4.05" shape="163.02,504.01 165.81,506.96"/>
    </edge>
    <edge id=":1012053506_1" function="internal">
        <lane id=":1012053506_1_0" index="0" disallow="pedestrian tram rail_urban rail rail_electric rail_fast ship container cable_car subway aircraft wheelchair scooter drone" speed="13.89" length="2.23" shape="163.02,504.01 160.79,504.20"/>
        <lane id=":1012053506_1_1" index="1" disallow="pedestrian tram rail_urban rail rail_electric rail_fast ship container cable_car subway aircraft wheelchair scooter drone" speed="13.89" length="2.23" shape="162.73,500.83 160.51,501.01"/>
    </edge>
    <edge id=":1012053506_3" function="internal">
        <lane id=":1012053506_3_0" index="0" allow="delivery bicycle" speed="4.09" length="3.52" shape="162.66,506.39 162.70,505.36 162.41,504.65 161.77,504.26 160.79,504.20"/>
    </edge>
    <edge id=":1012053506_4" function="internal">
        <lane id=":1012053506_4_0" index="0" allow="pedestrian delivery bicycle" speed="3.65" length="4.67" shape="162.66,506.39 163.66,505.35 164.52,505.10 165.23,505.63 165.81,506.96"/>
    </edge>
    <edge id=":1503690817_0" function="internal">
        <lane id=":1503690817_0_0" index="0" allow="delivery bicycle" speed="5.56" length="5.75" width="2.50" shape="138.55,536.97 134.44,532.94"/>
    </edge>
    <edge id=":1503690817_1" function="internal">
        <lane id=":1503690817_1_0" index="0" allow="delivery bicycle" speed="3.23" length="0.90" width="2.50" shape="138.55,536.97 138.34,536.09"/>
    </edge>
    <edge id=":1503690817_4" function="internal">
        <lane id=":1503690817_4_0" index="0" allow="delivery bicycle" speed="3.23" length="2.75" width="2.50" shape="138.34,536.09 138.29,535.88 138.48,535.20 139.14,534.96 140.25,535.14"/>
    </edge>
    <edge id=":1503690817_2" function="internal">
        <lane id=":1503690817_2_0" index="0" allow="delivery bicycle" speed="5.56" length="5.65" width="2.50" shape="136.22,531.18 140.25,535.14"/>
    </edge>
    <edge id=":1503690817_3" function="internal">
        <lane id=":1503690817_3_0" index="0" allow="delivery bicycle" speed="3.23" length="0.89" width="2.50" shape="136.22,531.18 136.39,532.06"/>
    </edge>
    <edge id=":1503690817_5" function="internal">
        <lane id=":1503690817_5_0" index="0" allow="delivery bicycle" speed="3.23" length="2.76" width="2.50" shape="136.39,532.06 136.44,532.29 136.21,532.95 135.55,533.17 134.44,532.94"/>
    </edge>
    <edge id=":1710620677_0" function="internal">
        <lane id=":1710620677_0_0" index="0" allow="bicycle" speed="4.54" length="4.33" width="2.00" shape="162.83,495.64 161.60,495.31 160.63,495.44 159.93,496.05 159.49,497.11"/>
    </edge>
    <edge id=":1710620677_1" function="internal">
        <lane id=":1710620677_1_0" index="0" disallow="pedestrian tram rail_urban rail rail_electric rail_fast ship container cable_car subway aircraft wheelchair scooter drone" speed="13.89" length="5.26" shape="163.06,495.08 158.21,493.03"/>
    </edge>
    <edge id=":1710620677_2" function="internal">
        <lane id=":1710620677_2_0" index="0" allow="bicycle" speed="4.00" length="3.73" width="2.00" shape="163.23,488.75 162.83,489.59 162.91,490.34 163.47,491.00 164.51,491.57"/>
    </edge>
    <edge id=":1710620677_3" function="internal">
        <lane id=":1710620677_3_0" index="0" allow="bicycle" speed="5.56" length="9.27" width="2.00" shape="163.23,488.75 161.65,491.00 160.74,492.65 160.14,494.45 159.49,497.11"/>
    </edge>
    <edge id=":1710620677_4" function="internal">
        <lane id=":1710620677_4_0" index="0" allow="bicycle" speed="6.30" length="7.36" width="2.00" shape="163.23,488.75 161.42,491.08 159.94,492.66 158.79,493.50 157.97,493.58"/>
    </edge>
    <edge id=":1710620677_5" function="internal">
        <lane id=":1710620677_5_0" index="0" disallow="pedestrian tram rail_urban rail rail_electric rail_fast ship container cable_car subway aircraft wheelchair scooter drone" speed="13.89" length="5.18" shape="159.51,490.10 164.28,492.12"/>
    </edge>
    <edge id=":1710620677_6" function="internal">
        <lane id=":1710620677_6_0" index="0" allow="bicycle" speed="6.13" length="0.44" width="2.00" shape="159.26,490.65 159.56,490.97"/>
    </edge>
    <edge id=":1710620677_7" function="internal">
        <lane id=":1710620677_7_0" index="0" allow="bicycle" speed="6.13" length="6.34" width="2.00" shape="159.56,490.97 159.87,491.32 160.11,492.62 159.99,494.55 159.49,497.11"/>
    </edge>
    <edge id=":2039728286_0" function="internal">
        <lane id=":2039728286_0_0" index="0" allow="delivery bicycle" speed="5.56" length="7.24" shape="111.37,498.35 110.32,496.49 109.68,495.16 109.14,493.79 108.39,491.77"/>
    </edge>
    <edge id=":2039728286_1" function="internal">
        <lane id=":2039728286_1_0" index="0" allow="bicycle" speed="5.56" length="8.61" width="2.00" shape="111.37,498.35 111.12,497.06 111.67,495.43 113.02,493.45 115.18,491.11"/>
    </edge>
    <edge id=":2039728286_2" function="internal">
        <lane id=":2039728286_2_0" index="0" allow="delivery bicycle" speed="3.65" length="4.68" shape="111.37,498.35 111.53,496.91 112.05,496.19 112.94,496.17 114.21,496.86"/>
    </edge>
    <edge id=":2039728286_3" function="internal">
        <lane id=":2039728286_3_0" index="0" allow="bicycle" speed="4.50" length="4.95" width="2.00" shape="111.38,490.62 112.05,491.80 112.92,492.28 113.96,492.05 115.18,491.11"/>
    </edge>
    <edge id=":2039728286_4" function="internal">
        <lane id=":2039728286_4_0" index="0" allow="delivery bicycle" speed="5.56" length="6.87" shape="111.38,490.62 112.09,492.53 112.60,493.84 113.21,495.09 114.21,496.86"/>
    </edge>
    <edge id=":2039728286_5" function="internal">
        <lane id=":2039728286_5_0" index="0" allow="delivery bicycle" speed="3.65" length="4.67" shape="111.38,490.62 111.06,492.03 110.46,492.69 109.57,492.61 108.39,491.77"/>
    </edge>
    <edge id=":2039728286_6" function="internal">
        <lane id=":2039728286_6_0" index="0" allow="bicycle" speed="5.56" length="5.62" width="2.00" shape="108.48,497.09 109.04,496.32 109.21,495.18 108.99,493.66 108.39,491.77"/>
    </edge>
    <edge id=":2039728286_7" function="internal">
        <lane id=":2039728286_7_0" index="0" allow="pedestrian bicycle" speed="5.56" length="8.98" width="2.00" shape="108.48,497.09 110.58,495.44 111.96,494.25 113.28,492.99 115.18,491.11"/>
    </edge>
    <edge id=":2039728286_8" function="internal">
        <lane id=":2039728286_8_0" index="0" allow="bicycle" speed="5.31" length="6.63" width="2.00" shape="108.48,497.09 110.35,495.91 111.93,495.48 113.21,495.79 114.21,496.86"/>
    </edge>
    <edge id=":2039728293_0" function="internal">
        <lane id=":2039728293_0_0" index="0" allow="pedestrian bicycle" speed="5.56" length="3.91" width="2.00" shape="105.17,499.52 108.33,497.21"/>
    </edge>
    <edge id=":2039728294_0" function="internal">
        <lane id=":2039728294_0_0" index="0" allow="bicycle" speed="4.61" length="4.19" width="2.00" shape="122.57,479.45 123.64,479.98 124.61,480.09 125.49,479.76 126.28,479.01"/>
    </edge>
    <edge id=":2039728294_1" function="internal">
        <lane id=":2039728294_1_0" index="0" allow="pedestrian bicycle" speed="5.56" length="5.10" width="2.00" shape="122.98,482.90 124.00,481.79 124.69,481.01 125.35,480.21 126.28,479.01"/>
    </edge>
    <edge id=":2039728295_0" function="internal">
        <lane id=":2039728295_0_0" index="0" allow="pedestrian delivery bicycle" speed="5.56" length="5.20" shape="91.73,511.89 91.10,510.48 90.64,509.53 90.12,508.61 89.33,507.29"/>
    </edge>
    <edge id=":2039728295_1" function="internal">
        <lane id=":2039728295_1_0" index="0" allow="pedestrian bicycle" speed="5.56" length="7.16" width="2.00" shape="91.73,511.89 91.62,510.75 92.22,509.44 93.54,507.98 95.58,506.35"/>
    </edge>
    <edge id=":2039728295_2" function="internal">
        <lane id=":2039728295_2_0" index="0" allow="pedestrian delivery bicycle" speed="3.65" length="4.67" shape="91.73,511.89 91.98,510.46 92.54,509.77 93.44,509.81 94.66,510.58"/>
    </edge>
    <edge id=":2039728295_3" function="internal">
        <lane id=":2039728295_3_0" index="0" allow="pedestrian bicycle" speed="4.57" length="4.16" width="2.00" shape="92.07,505.64 92.80,506.53 93.62,506.94 94.55,506.88 95.58,506.35"/>
    </edge>
    <edge id=":2039728295_4" function="internal">
        <lane id=":2039728295_4_0" index="0" allow="pedestrian delivery bicycle" speed="5.56" length="5.59" shape="92.07,505.64 92.92,507.06 93.48,508.05 93.97,509.07 94.66,510.58"/>
    </edge>
    <edge id=":2039728295_5" function="internal">
        <lane id=":2039728295_5_0" index="0" allow="pedestrian delivery bicycle" speed="3.65" length="4.67" shape="92.07,505.64 92.00,507.08 91.52,507.83 90.63,507.90 89.33,507.29"/>
    </edge>
    <edge id=":2039728295_6" function="internal">
        <lane id=":2039728295_6_0" index="0" allow="pedestrian bicycle" speed="4.97" length="5.03" width="2.00" shape="88.03,511.55 89.14,510.60 89.73,509.57 89.79,508.46 89.33,507.29"/>
    </edge>
    <edge id=":2039728295_7" function="internal">
        <lane id=":2039728295_7_0" index="0" allow="pedestrian bicycle" speed="5.56" length="9.17" width="2.00" shape="88.03,511.55 95.58,506.35"/>
    </edge>
    <edge id=":2039728295_8" function="internal">
        <lane id=":2039728295_8_0" index="0" allow="pedestrian bicycle" speed="5.55" length="7.53" width="2.00" shape="88.03,511.55 90.48,510.13 92.41,509.49 93.80,509.64 94.66,510.58"/>
    </edge>
    <edge id=":2087710551_0" function="internal">
        <lane id=":2087710551_0_0" index="0" allow="pedestrian bicycle" speed="5.56" length="4.78" width="2.00" shape="158.63,509.24 157.24,509.52 156.28,509.69 155.32,509.80 153.90,509.90"/>
    </edge>
    <edge id=":2087710551_1" function="internal">
        <lane id=":2087710551_1_0" index="0" allow="bicycle" speed="5.11" length="4.08" width="2.00" shape="156.79,507.41 156.35,508.45 155.73,509.21 154.91,509.69 153.90,509.90"/>
    </edge>
    <edge id=":21518935_0" function="internal">
        <lane id=":21518935_0_0" index="0" disallow="pedestrian tram rail_urban rail rail_electric rail_fast ship container cable_car subway aircraft wheelchair scooter drone" speed="9.93" length="17.20" shape="147.88,488.59 144.85,486.54 142.84,483.37 141.87,479.09 141.92,473.69"/>
    </edge>
    <edge id=":21518935_1" function="internal">
        <lane id=":21518935_1_0" index="0" disallow="pedestrian tram rail_urban rail rail_electric rail_fast ship container cable_car subway aircraft wheelchair scooter drone" speed="13.89" length="12.34" shape="145.85,480.82 143.37,483.09 142.34,485.26 141.57,487.69 139.85,490.75"/>
        <lane id=":21518935_1_1" index="1" disallow="pedestrian tram rail_urban rail rail_electric rail_fast ship container cable_car subway aircraft wheelchair scooter drone" speed="13.89" length="12.34" shape="144.05,478.18 141.31,480.63 140.11,482.94 139.18,485.54 137.27,488.85"/>
    </edge>
    <edge id=":21518935_3" function="internal">
        <lane id=":21518935_3_0" index="0" disallow="pedestrian tram rail_urban rail rail_electric rail_fast ship container cable_car subway aircraft wheelchair scooter drone" speed="13.89" length="14.76" shape="129.55,483.14 132.58,480.28 135.40,478.74 137.59,476.96 138.74,473.38"/>
        <lane id=":21518935_3_1" index="1" disallow="pedestrian tram rail_urban rail rail_electric rail_fast ship container cable_car subway aircraft wheelchair scooter drone" speed="13.89" length="14.76" shape="132.13,485.04 135.44,481.77 138.43,479.90 140.72,477.76 141.92,473.69"/>
    </edge>
    <edge id=":21518935_5" function="internal">
        <lane id=":21518935_5_0" index="0" disallow="pedestrian tram rail_urban rail rail_electric rail_fast ship container cable_car subway aircraft wheelchair scooter drone" speed="9.21" length="2.30" shape="134.70,486.94 136.42,485.41"/>
    </edge>
    <edge id=":21518935_6" function="internal">
        <lane id=":21518935_6_0" index="0" disallow="pedestrian tram rail_urban rail rail_electric rail_fast ship container cable_car subway aircraft wheelchair scooter drone" speed="3.65" length="1.33" shape="134.70,486.94 135.95,486.49"/>
    </edge>
    <edge id=":21518935_7" function="internal">
        <lane id=":21518935_7_0" index="0" disallow="pedestrian tram rail_urban rail rail_electric rail_fast ship container cable_car subway aircraft wheelchair scooter drone" speed="9.21" length="13.35" shape="136.42,485.41 137.16,484.75 140.39,483.80 144.38,484.10 149.13,485.64"/>
    </edge>
    <edge id=":21518935_8" function="internal">
        <lane id=":21518935_8_0" index="0" disallow="pedestrian tram rail_urban rail rail_electric rail_fast ship container cable_car subway aircraft wheelchair scooter drone" speed="3.65" length="3.35" shape="135.95,486.49 136.06,486.45 136.94,486.61 137.34,487.41 137.27,488.85"/>
    </edge>
    <edge id=":21518936_0" function="internal">
        <lane id=":21518936_0_0" index="0" disallow="pedestrian tram rail_urban rail rail_electric rail_fast ship container cable_car subway aircraft wheelchair scooter drone" speed="13.89" length="4.33" shape="118.70,513.62 115.10,516.05"/>
        <lane id=":21518936_0_1" index="1" disallow="pedestrian tram rail_urban rail rail_electric rail_fast ship container cable_car subway aircraft wheelchair scooter drone" speed="13.89" length="4.33" shape="116.88,510.98 113.32,513.40"/>
    </edge>
    <edge id=":21518936_2" function="internal">
        <lane id=":21518936_2_0" index="0" disallow="pedestrian tram rail_urban rail rail_electric rail_fast ship container cable_car subway aircraft wheelchair scooter drone" speed="13.89" length="4.23" shape="107.97,505.42 111.43,503.08"/>
        <lane id=":21518936_2_1" index="1" disallow="pedestrian tram rail_urban rail rail_electric rail_fast ship container cable_car subway aircraft wheelchair scooter drone" speed="13.89" length="4.23" shape="109.75,508.08 113.25,505.71"/>
        <lane id=":21518936_2_2" index="2" disallow="pedestrian tram rail_urban rail rail_electric rail_fast ship container cable_car subway aircraft wheelchair scooter drone" speed="13.89" length="4.23" shape="111.53,510.74 115.07,508.35"/>
    </edge>
    <edge id=":2461952017_0" function="internal">
        <lane id=":2461952017_0_0" index="0" allow="pedestrian bicycle" speed="5.56" length="3.78" width="2.00" shape="121.12,518.64 117.88,520.57"/>
    </edge>
    <edge id=":2461952042_0" function="internal">
        <lane id=":2461952042_0_0" index="0" allow="pedestrian bicycle" speed="5.56" length="6.66" width="2.00" shape="168.57,509.03 167.15,509.06 165.91,509.73 164.85,511.04 163.96,512.99"/>
    </edge>
    <edge id=":2461952042_1" function="internal">
        <lane id=":2461952042_1_0" index="0" allow="pedestrian bicycle" speed="5.56" length="9.86" width="2.00" shape="168.57,509.03 165.70,508.52 163.69,508.39 161.69,508.62 158.83,509.20"/>
    </edge>
    <edge id=":2461952042_2" function="internal">
        <lane id=":2461952042_2_0" index="0" allow="pedestrian bicycle" speed="5.56" length="6.67" width="2.00" shape="168.57,509.03 165.88,508.43 164.00,507.82 162.91,507.20 162.62,506.58"/>
    </edge>
    <edge id=":2461952042_3" function="internal">
        <lane id=":2461952042_3_0" index="0" allow="pedestrian delivery bicycle" speed="5.56" length="6.13" shape="165.77,507.15 165.40,508.93 165.04,510.12 164.59,511.29 163.96,512.99"/>
    </edge>
    <edge id=":2461952042_4" function="internal">
        <lane id=":2461952042_4_0" index="0" allow="pedestrian bicycle" speed="5.56" length="7.32" width="2.00" shape="165.77,507.15 164.75,507.86 162.60,508.47 160.30,508.93 158.83,509.20"/>
    </edge>
    <edge id=":2461952042_5" function="internal">
        <lane id=":2461952042_5_0" index="0" allow="pedestrian delivery bicycle" speed="3.65" length="4.67" shape="165.77,507.15 164.77,508.19 163.91,508.44 163.20,507.91 162.62,506.58"/>
    </edge>
    <edge id=":2461952042_6" function="internal">
        <lane id=":2461952042_6_0" index="0" allow="pedestrian bicycle" speed="4.31" length="4.76" width="2.00" shape="160.94,511.94 161.26,510.48 161.01,509.54 160.20,509.11 158.83,509.20"/>
    </edge>
    <edge id=":2461952042_7" function="internal">
        <lane id=":2461952042_7_0" index="0" allow="pedestrian delivery bicycle" speed="5.56" length="5.62" shape="160.94,511.94 161.52,510.37 161.94,509.30 162.28,508.21 162.62,506.58"/>
    </edge>
    <edge id=":2461952042_8" function="internal">
        <lane id=":2461952042_8_0" index="0" allow="pedestrian delivery bicycle" speed="3.65" length="4.67" shape="160.94,511.94 162.09,511.07 162.98,510.95 163.60,511.60 163.96,512.99"/>
    </edge>
    <edge id=":251056233_0" function="internal">
        <lane id=":251056233_0_0" index="0" allow="pedestrian bicycle" speed="4.72" length="4.62" width="2.00" shape="171.52,452.71 170.37,452.45 169.42,452.71 168.67,453.47 168.13,454.74"/>
    </edge>
    <edge id=":251056233_1" function="internal">
        <lane id=":251056233_1_0" index="0" allow="pedestrian delivery bicycle" speed="5.56" length="5.42" shape="171.52,452.71 170.03,452.10 169.03,451.66 168.04,451.16 166.63,450.38"/>
    </edge>
    <edge id=":251056233_2" function="internal">
        <lane id=":251056233_2_0" index="0" allow="pedestrian delivery bicycle" speed="3.65" length="4.67" shape="171.52,452.71 170.71,451.52 170.64,450.63 171.32,450.04 172.73,449.75"/>
    </edge>
    <edge id=":251056233_3" function="internal">
        <lane id=":251056233_3_0" index="0" allow="pedestrian bicycle" speed="5.16" length="5.22" width="2.00" shape="171.00,445.39 170.76,446.89 170.96,448.12 171.62,449.07 172.73,449.75"/>
    </edge>
    <edge id=":251056233_4" function="internal">
        <lane id=":251056233_4_0" index="0" allow="pedestrian bicycle" speed="5.56" length="9.78" width="2.00" shape="171.00,445.39 168.13,454.74"/>
    </edge>
    <edge id=":251056233_5" function="internal">
        <lane id=":251056233_5_0" index="0" allow="pedestrian bicycle" speed="5.45" length="7.51" width="2.00" shape="171.00,445.39 170.04,448.10 168.99,449.84 167.85,450.60 166.63,450.38"/>
    </edge>
    <edge id=":251056233_6" function="internal">
        <lane id=":251056233_6_0" index="0" allow="pedestrian delivery bicycle" speed="5.56" length="5.04" shape="168.18,447.58 169.50,448.30 170.41,448.77 171.35,449.18 172.73,449.75"/>
    </edge>
    <edge id=":251056233_7" function="internal">
        <lane id=":251056233_7_0" index="0" allow="pedestrian bicycle" speed="5.56" length="7.49" width="2.00" shape="168.18,447.58 168.83,448.39 169.03,449.85 168.80,451.97 168.13,454.74"/>
    </edge>
    <edge id=":251056233_8" function="internal">
        <lane id=":251056233_8_0" index="0" allow="pedestrian delivery bicycle" speed="3.65" length="4.67" shape="168.18,447.58 168.85,448.87 168.81,449.76 168.07,450.27 166.63,450.38"/>
    </edge>
    <edge id=":251056235_0" function="internal">
        <lane id=":251056235_0_0" index="0" allow="pedestrian delivery bicycle" speed="5.20" length="4.84" shape="201.96,450.83 200.71,450.45 199.59,450.53 198.61,451.06 197.76,452.05"/>
    </edge>
    <edge id=":251056235_1" function="internal">
        <lane id=":251056235_1_0" index="0" allow="pedestrian delivery bicycle" speed="5.56" length="9.22" shape="201.96,450.83 199.82,449.50 198.42,447.81 197.76,445.78 197.83,443.41"/>
    </edge>
    <edge id=":251056235_2" function="internal">
        <lane id=":251056235_2_0" index="0" allow="pedestrian delivery bicycle" speed="3.65" length="4.67" shape="201.96,450.83 201.21,449.60 201.18,448.71 201.88,448.15 203.31,447.93"/>
    </edge>
    <edge id=":251056235_3" function="internal">
        <lane id=":251056235_3_0" index="0" allow="pedestrian delivery bicycle" speed="5.54" length="5.00" shape="200.99,443.95 200.96,445.21 201.33,446.29 202.12,447.20 203.31,447.93"/>
    </edge>
    <edge id=":251056235_4" function="internal">
        <lane id=":251056235_4_0" index="0" allow="pedestrian delivery bicycle" speed="5.56" length="8.82" shape="200.99,443.95 200.50,446.51 199.98,448.24 199.16,449.84 197.76,452.05"/>
    </edge>
    <edge id=":251056235_5" function="internal">
        <lane id=":251056235_5_0" index="0" allow="pedestrian delivery bicycle" speed="3.65" length="4.67" shape="200.99,443.95 199.99,445.00 199.14,445.26 198.42,444.73 197.83,443.41"/>
    </edge>
    <edge id=":251056235_6" function="internal">
        <lane id=":251056235_6_0" index="0" allow="pedestrian delivery bicycle" speed="5.56" length="7.54" shape="195.07,450.32 196.26,448.44 196.97,447.07 197.42,445.59 197.83,443.41"/>
    </edge>
    <edge id=":251056235_7" function="internal">
        <lane id=":251056235_7_0" index="0" allow="pedestrian delivery bicycle" speed="5.56" length="9.51" shape="195.07,450.32 196.74,448.38 198.67,447.33 200.86,447.18 203.31,447.93"/>
    </edge>
    <edge id=":251056235_8" function="internal">
        <lane id=":251056235_8_0" index="0" allow="pedestrian delivery bicycle" speed="3.65" length="4.67" shape="195.07,450.32 196.39,449.74 197.28,449.84 197.74,450.61 197.76,452.05"/>
    </edge>
    <edge id=":251056238_0" function="internal">
        <lane id=":251056238_0_0" index="0" allow="pedestrian delivery bicycle" speed="3.65" length="4.67" shape="209.19,436.38 210.18,437.43 210.39,438.30 209.81,438.99 208.46,439.49"/>
    </edge>
    <edge id=":251056239_0" function="internal">
        <lane id=":251056239_0_0" index="0" allow="pedestrian delivery bicycle" speed="3.65" length="4.67" shape="205.50,448.95 206.25,450.19 206.28,451.08 205.58,451.64 204.15,451.86"/>
    </edge>
    <edge id=":33590509_0" function="internal">
        <lane id=":33590509_0_0" index="0" disallow="tram rail_urban rail rail_electric rail_fast ship container cable_car subway aircraft wheelchair scooter drone" speed="3.65" length="4.67" shape="324.63,515.00 325.87,515.72 326.32,516.50 325.97,517.32 324.82,518.19"/>
    </edge>
    <edge id=":33590515_0" function="internal">
        <lane id=":33590515_0_0" index="0" disallow="pedestrian tram rail_urban rail rail_electric rail_fast ship container cable_car subway aircraft wheelchair scooter drone" speed="8.33" length="8.14" shape="204.56,508.04 201.99,508.62 200.50,510.58 199.03,512.47 196.50,512.85"/>
        <lane id=":33590515_0_1" index="1" disallow="pedestrian tram rail_urban rail rail_electric rail_fast ship container cable_car subway aircraft wheelchair scooter drone" speed="8.33" length="8.14" shape="204.56,508.04 202.38,508.17 200.89,509.00 199.42,509.77 197.27,509.75"/>
        <lane id=":33590515_0_2" index="2" disallow="pedestrian tram rail_urban rail rail_electric rail_fast ship container cable_car subway aircraft wheelchair scooter drone" speed="8.33" length="8.14" shape="204.56,508.04 198.04,506.64"/>
    </edge>
    <edge id=":33590515_3" function="internal">
        <lane id=":33590515_3_0" index="0" disallow="pedestrian tram rail_urban rail rail_electric rail_fast ship container cable_car subway aircraft wheelchair scooter drone" speed="8.33" length="6.51" shape="198.81,503.54 205.18,504.90"/>
    </edge>
    <edge id=":336101847_0" function="internal">
        <lane id=":336101847_0_0" index="0" allow="bicycle" speed="5.56" length="9.86" width="2.00" shape="106.76,468.94 114.99,474.36"/>
    </edge>
    <edge id=":336101849_0" function="internal">
        <lane id=":336101849_0_0" index="0" allow="pedestrian bicycle" speed="5.56" length="5.18" width="2.00" shape="115.87,490.44 119.46,486.71"/>
    </edge>
    <edge id=":3430832478_0" function="internal">
        <lane id=":3430832478_0_0" index="0" allow="bicycle" speed="4.13" length="2.58" width="2.00" shape="167.04,482.99 165.09,484.68"/>
    </edge>
    <edge id=":3430832478_1" function="internal">
        <lane id=":3430832478_1_0" index="0" allow="bicycle" speed="5.56" length="4.16" width="2.00" shape="167.04,482.99 166.43,484.06 166.02,484.79 165.57,485.51 164.86,486.52"/>
    </edge>
    <edge id=":3430832478_2" function="internal">
        <lane id=":3430832478_2_0" index="0" disallow="pedestrian tram rail_urban rail rail_electric rail_fast ship container cable_car subway aircraft wheelchair scooter drone" speed="13.89" length="2.73" shape="163.70,482.55 163.94,483.33 164.03,483.90 164.19,484.43 164.64,485.07"/>
    </edge>
    <edge id=":3430832478_3" function="internal">
        <lane id=":3430832478_3_0" index="0" allow="bicycle" speed="5.87" length="4.21" width="2.00" shape="163.15,482.79 163.66,483.65 164.37,484.70 164.90,485.72 164.86,486.52"/>
    </edge>
    <edge id=":3430832481_0" function="internal">
        <lane id=":3430832481_0_0" index="0" disallow="pedestrian tram rail_urban rail rail_electric rail_fast ship container cable_car subway aircraft wheelchair scooter drone" speed="3.65" length="4.67" shape="78.89,535.51 77.45,535.51 76.67,535.07 76.56,534.18 77.11,532.85"/>
    </edge>
    <edge id=":3445191685_0" function="internal">
        <lane id=":3445191685_0_0" index="0" allow="pedestrian bicycle" speed="5.56" length="5.25" width="2.00" shape="133.94,469.97 135.03,468.85 135.73,468.05 136.34,467.17 137.16,465.84"/>
    </edge>
    <edge id=":3445191689_0" function="internal">
        <lane id=":3445191689_0_0" index="0" allow="bicycle" speed="5.56" length="8.90" width="2.00" shape="99.93,492.65 102.27,484.06"/>
    </edge>
    <edge id=":3445192201_0" function="internal">
        <lane id=":3445192201_0_0" index="0" allow="delivery bicycle" speed="3.23" length="3.65" width="2.50" shape="148.85,542.43 149.21,543.50 149.07,544.18 148.44,544.48 147.31,544.40"/>
    </edge>
    <edge id=":395612533_0" function="internal">
        <lane id=":395612533_0_0" index="0" allow="delivery bicycle" speed="3.28" length="1.58" shape="120.13,513.03 119.86,512.81 119.57,512.91 119.25,513.19 118.86,513.50"/>
    </edge>
    <edge id=":395612533_1" function="internal">
        <lane id=":395612533_1_0" index="0" allow="delivery bicycle" speed="5.56" length="16.65" shape="120.13,513.03 111.60,498.74"/>
    </edge>
    <edge id=":395612533_2" function="internal">
        <lane id=":395612533_2_0" index="0" allow="delivery bicycle" speed="7.12" length="3.67" shape="120.13,513.03 118.91,510.30 118.86,509.62"/>
    </edge>
    <edge id=":395612533_3" function="internal">
        <lane id=":395612533_3_0" index="0" allow="delivery bicycle" speed="3.65" length="1.44" shape="120.13,513.03 120.19,511.59"/>
    </edge>
    <edge id=":395612533_17" function="internal">
        <lane id=":395612533_17_0" index="0" allow="delivery bicycle" speed="7.12" length="6.78" shape="118.86,509.62 118.73,507.86 119.60,505.70 121.53,503.83"/>
    </edge>
    <edge id=":395612533_18" function="internal">
        <lane id=":395612533_18_0" index="0" allow="delivery bicycle" speed="3.65" length="3.23" shape="120.19,511.59 120.66,510.83 121.55,510.76 122.86,511.36"/>
    </edge>
    <edge id=":395612533_4" function="internal">
        <lane id=":395612533_4_0" index="0" allow="delivery bicycle" speed="4.47" length="3.52" shape="125.22,509.05 124.44,509.54 123.54,510.11 122.90,510.72 122.86,511.36"/>
    </edge>
    <edge id=":395612533_5" function="internal">
        <lane id=":395612533_5_0" index="0" disallow="pedestrian tram rail_urban rail rail_electric rail_fast ship container cable_car subway aircraft wheelchair scooter drone" speed="13.89" length="7.74" shape="125.22,509.05 118.86,513.50"/>