<?xml version="1.0" encoding="UTF-8"?>

<!-- generated on 2024-09-03 01:36:56 by Eclipse SUMO netconvert Version 1.20.0
<configuration xmlns:xsi="http://www.w3.org/2001/XMLSchema-instance" xsi:noNamespaceSchemaLocation="http://sumo.dlr.de/xsd/netconvertConfiguration.xsd">

    <input>
        <osm-files value="train_files/roundabout/easy/osm_files/map(48).osm"/>
    </input>

    <output>
        <output-file value="train_files/roundabout/easy/outputs/map(48)_dict/map(48)/map(48).net.xml"/>
    </output>

    <projection>
        <proj.utm value="true"/>
    </projection>

    <building_defaults>
        <default.junctions.keep-clear value="false"/>
    </building_defaults>

</configuration>
-->

<net version="1.20" junctionCornerDetail="5" limitTurnSpeed="5.50" xmlns:xsi="http://www.w3.org/2001/XMLSchema-instance" xsi:noNamespaceSchemaLocation="http://sumo.dlr.de/xsd/net_file.xsd">

    <location netOffset="-471784.23,-5416516.08" convBoundary="0.00,0.00,1473.59,1047.28" origBoundary="2.614998,48.900947,2.635038,48.910433" projParameter="+proj=utm +zone=31 +ellps=WGS84 +datum=WGS84 +units=m +no_defs"/>

    <type id="highway.primary" priority="12" numLanes="2" speed="27.78" disallow="tram rail_urban rail rail_electric rail_fast ship container cable_car subway aircraft wheelchair scooter drone" oneway="0"/>
    <type id="highway.residential" priority="3" numLanes="1" speed="13.89" disallow="tram rail_urban rail rail_electric rail_fast ship container cable_car subway aircraft wheelchair scooter drone" oneway="0"/>
    <type id="highway.secondary_link" priority="6" numLanes="1" speed="22.22" disallow="tram rail_urban rail rail_electric rail_fast ship container cable_car subway aircraft wheelchair scooter drone" oneway="0"/>
    <type id="highway.track" priority="1" numLanes="1" speed="5.56" allow="pedestrian motorcycle moped bicycle" oneway="0"/>

    <edge id=":2333650492_0" function="internal">
        <lane id=":2333650492_0_0" index="0" disallow="tram rail_urban rail rail_electric rail_fast ship container cable_car subway aircraft wheelchair scooter drone" speed="25.00" length="0.29" shape="6.88,19.83 6.79,19.56"/>
    </edge>
    <edge id=":245160561_0" function="internal">
        <lane id=":245160561_0_0" index="0" allow="pedestrian motorcycle moped bicycle" speed="5.75" length="9.15" shape="517.93,832.54 515.24,832.92 513.73,834.02 513.38,835.86 514.20,838.43"/>
    </edge>
    <edge id=":245160561_1" function="internal">
        <lane id=":245160561_1_0" index="0" allow="pedestrian motorcycle moped bicycle" speed="15.44" length="14.66" shape="503.85,826.82 507.83,828.93 511.22,829.61 514.44,829.52 517.92,829.34"/>
    </edge>
    <edge id=":245160561_2" function="internal">
        <lane id=":245160561_2_0" index="0" disallow="tram rail_urban rail rail_electric rail_fast ship container cable_car subway aircraft wheelchair scooter drone" speed="18.44" length="15.24" shape="503.85,826.82 507.70,829.51 510.17,831.65 512.07,834.27 514.20,838.43"/>
        <lane id=":245160561_2_1" index="1" disallow="tram rail_urban rail rail_electric rail_fast ship container cable_car subway aircraft wheelchair scooter drone" speed="17.70" length="15.24" shape="502.04,829.46 505.57,831.94 507.82,833.93 509.55,836.37 511.50,840.20"/>
    </edge>
    <edge id=":2755106692_0" function="internal">
        <lane id=":2755106692_0_0" index="0" disallow="tram rail_urban rail rail_electric rail_fast ship container cable_car subway aircraft wheelchair scooter drone" speed="11.13" length="10.00" shape="516.97,863.92 514.30,863.88 512.36,863.80 510.62,864.21 508.55,865.65"/>
        <lane id=":2755106692_0_1" index="1" disallow="tram rail_urban rail rail_electric rail_fast ship container cable_car subway aircraft wheelchair scooter drone" speed="12.35" length="10.00" shape="516.81,860.72 513.50,860.74 511.12,860.77 508.99,861.40 506.43,863.25"/>
    </edge>
    <edge id=":2755106692_2" function="internal">
        <lane id=":2755106692_2_0" index="0" disallow="tram rail_urban rail rail_electric rail_fast ship container cable_car subway aircraft wheelchair scooter drone" speed="27.78" length="10.16" shape="514.60,857.11 513.09,859.86 512.05,861.77 510.78,863.48 508.55,865.65"/>
        <lane id=":2755106692_2_1" index="1" disallow="tram rail_urban rail rail_electric rail_fast ship container cable_car subway aircraft wheelchair scooter drone" speed="11.92" length="10.16" shape="511.81,855.48 511.09,858.21 510.11,859.93 508.64,861.37 506.43,863.25"/>
    </edge>
    <edge id=":2755106741_0" function="internal">
        <lane id=":2755106741_0_0" index="0" disallow="tram rail_urban rail rail_electric rail_fast ship container cable_car subway aircraft wheelchair scooter drone" speed="17.99" length="11.79" shape="484.81,818.75 487.47,820.71 489.28,822.21 491.24,823.27 494.36,823.94"/>
        <lane id=":2755106741_0_1" index="1" disallow="tram rail_urban rail rail_electric rail_fast ship container cable_car subway aircraft wheelchair scooter drone" speed="19.11" length="11.79" shape="483.08,821.44 486.10,823.63 488.18,825.25 490.43,826.39 493.98,827.12"/>
    </edge>
    <edge id=":2755106741_2" function="internal">
        <lane id=":2755106741_2_0" index="0" disallow="tram rail_urban rail rail_electric rail_fast ship container cable_car subway aircraft wheelchair scooter drone" speed="15.98" length="12.02" shape="482.33,825.84 485.71,824.41 488.17,823.70 490.72,823.59 494.36,823.94"/>
        <lane id=":2755106741_2_1" index="1" disallow="tram rail_urban rail rail_electric rail_fast ship container cable_car subway aircraft wheelchair scooter drone" speed="15.44" length="12.02" shape="482.80,829.13 485.95,827.76 488.23,827.01 490.58,826.82 493.98,827.12"/>
    </edge>
    <edge id=":2776100072_0" function="internal">
        <lane id=":2776100072_0_0" index="0" disallow="tram rail_urban rail rail_electric rail_fast ship container cable_car subway aircraft wheelchair scooter drone" speed="11.42" length="6.10" shape="470.16,836.65 470.59,834.93 470.59,833.70 470.30,832.45 469.85,830.69"/>
    </edge>
    <edge id=":2776100072_1" function="internal">
        <lane id=":2776100072_1_0" index="0" disallow="tram rail_urban rail rail_electric rail_fast ship container cable_car subway aircraft wheelchair scooter drone" speed="11.04" length="6.06" shape="470.16,836.65 470.82,834.85 471.49,833.71 472.45,832.75 473.93,831.51"/>
        <lane id=":2776100072_1_1" index="1" disallow="tram rail_urban rail rail_electric rail_fast ship container cable_car subway aircraft wheelchair scooter drone" speed="10.26" length="6.06" shape="473.21,837.63 473.81,836.12 474.46,835.20 475.36,834.44 476.67,833.41"/>
    </edge>
    <edge id=":290019196_0" function="internal">
        <lane id=":290019196_0_0" index="0" disallow="tram rail_urban rail rail_electric rail_fast ship container cable_car subway aircraft wheelchair scooter drone" speed="9.24" length="8.18" shape="462.45,845.91 464.94,844.62 466.82,843.36 468.09,842.14 468.77,840.97"/>
        <lane id=":290019196_0_1" index="1" disallow="tram rail_urban rail rail_electric rail_fast ship container cable_car subway aircraft wheelchair scooter drone" speed="10.54" length="10.78" shape="463.82,848.81 466.88,847.17 469.23,845.48 470.88,843.74 471.81,841.95"/>
    </edge>
    <edge id=":290019196_2" function="internal">
        <lane id=":290019196_2_0" index="0" disallow="tram rail_urban rail rail_electric rail_fast ship container cable_car subway aircraft wheelchair scooter drone" speed="13.49" length="10.13" shape="467.65,851.26 467.00,848.24 467.08,846.09 467.72,843.95 468.77,840.97"/>
        <lane id=":290019196_2_1" index="1" disallow="tram rail_urban rail rail_electric rail_fast ship container cable_car subway aircraft wheelchair scooter drone" speed="12.79" length="10.13" shape="470.96,851.28 470.34,848.55 470.36,846.60 470.89,844.66 471.81,841.95"/>
    </edge>
    <edge id=":290019203_0" function="internal">
        <lane id=":290019203_0_0" index="0" disallow="tram rail_urban rail rail_electric rail_fast ship container cable_car subway aircraft wheelchair scooter drone" speed="9.83" length="6.26" shape="486.56,875.64 485.82,873.92 485.26,872.72 484.44,871.76 482.93,870.78"/>
    </edge>
    <edge id=":290019203_1" function="internal">
        <lane id=":290019203_1_0" index="0" disallow="tram rail_urban rail rail_electric rail_fast ship container cable_car subway aircraft wheelchair scooter drone" speed="13.21" length="6.21" shape="489.24,872.27 487.29,872.23 485.94,872.08 484.66,871.65 482.93,870.78"/>
        <lane id=":290019203_1_1" index="1" disallow="tram rail_urban rail rail_electric rail_fast ship container cable_car subway aircraft wheelchair scooter drone" speed="12.43" length="6.21" shape="490.05,869.09 488.32,869.08 487.12,869.01 485.98,868.70 484.44,867.96"/>
    </edge>
    <edge id=":290019207_0" function="internal">
        <lane id=":290019207_0_0" index="0" disallow="tram rail_urban rail rail_electric rail_fast ship container cable_car subway aircraft wheelchair scooter drone" speed="3.72" length="4.63" shape="517.52,923.23 517.39,924.66 516.87,925.38 515.99,925.41 514.73,924.73"/>
    </edge>
    <edge id=":325167523_0" function="internal">
        <lane id=":325167523_0_0" index="0" disallow="tram rail_urban rail rail_electric rail_fast ship container cable_car subway aircraft wheelchair scooter drone" speed="10.54" length="6.18" shape="505.15,868.67 503.90,869.95 503.30,871.04 502.97,872.30 502.55,874.10"/>
    </edge>
    <edge id=":325167523_1" function="internal">
        <lane id=":325167523_1_0" index="0" disallow="tram rail_urban rail rail_electric rail_fast ship container cable_car subway aircraft wheelchair scooter drone" speed="12.37" length="6.12" shape="505.15,868.67 503.66,869.87 502.49,870.50 501.18,870.87 499.28,871.27"/>
        <lane id=":325167523_1_1" index="1" disallow="tram rail_urban rail rail_electric rail_fast ship container cable_car subway aircraft wheelchair scooter drone" speed="11.56" length="6.12" shape="503.02,866.27 501.71,867.29 500.66,867.76 499.50,868.00 497.83,868.32"/>
    </edge>
    <edge id=":325167525_0" function="internal">
        <lane id=":325167525_0_0" index="0" disallow="tram rail_urban rail rail_electric rail_fast ship container cable_car subway aircraft wheelchair scooter drone" speed="9.09" length="6.01" shape="473.78,864.42 472.40,863.38 471.26,862.97 469.98,862.89 468.19,862.87"/>
    </edge>
    <edge id=":325167525_1" function="internal">
        <lane id=":325167525_1_0" index="0" disallow="tram rail_urban rail rail_electric rail_fast ship container cable_car subway aircraft wheelchair scooter drone" speed="27.78" length="5.90" shape="473.78,864.42 472.49,863.10 471.80,862.02 471.22,860.84 470.29,859.21"/>
        <lane id=":325167525_1_1" index="1" disallow="tram rail_urban rail rail_electric rail_fast ship container cable_car subway aircraft wheelchair scooter drone" speed="27.78" length="5.90" shape="475.91,862.03 474.80,860.88 474.23,859.92 473.77,858.88 472.97,857.46"/>
    </edge>
    <edge id=":325168042_0" function="internal">
        <lane id=":325168042_0_0" index="0" disallow="tram rail_urban rail rail_electric rail_fast ship container cable_car subway aircraft wheelchair scooter drone" speed="12.88" length="9.37" shape="514.29,838.61 515.71,840.85 517.22,841.96 519.09,842.74 521.60,844.00"/>
        <lane id=":325168042_0_1" index="1" disallow="tram rail_urban rail rail_electric rail_fast ship container cable_car subway aircraft wheelchair scooter drone" speed="13.42" length="10.18" shape="514.29,838.61 515.48,841.40 516.33,843.39 517.57,845.01 519.94,846.74"/>
    </edge>
    <edge id=":325168042_2" function="internal">
        <lane id=":325168042_2_0" index="0" disallow="tram rail_urban rail rail_electric rail_fast ship container cable_car subway aircraft wheelchair scooter drone" speed="12.80" length="10.23" shape="514.29,838.61 515.72,841.53 516.56,843.67 516.77,845.88 516.34,849.04"/>
        <lane id=":325168042_2_1" index="1" disallow="tram rail_urban rail rail_electric rail_fast ship container cable_car subway aircraft wheelchair scooter drone" speed="11.94" length="10.23" shape="511.59,840.38 512.77,842.92 513.37,844.80 513.42,846.74 512.99,849.49"/>
    </edge>
    <edge id=":325170789_0" function="internal">
        <lane id=":325170789_0_0" index="0" allow="pedestrian motorcycle moped bicycle" speed="3.65" length="4.67" shape="971.08,944.69 972.18,945.62 972.48,946.46 971.99,947.21 970.71,947.87"/>
    </edge>

    <edge id="-29499165" from="245160561" to="325170789" priority="1" type="highway.track" shape="507.06,830.98 520.45,830.93 529.43,829.93 545.33,841.34 558.96,847.38 594.03,865.60 621.62,879.84 650.72,891.42 692.18,904.14 735.94,913.11 810.88,923.82 858.67,930.60 905.31,936.84 939.42,942.67 970.89,946.28">
        <lane id="-29499165_0" index="0" allow="pedestrian motorcycle moped bicycle" speed="5.56" length="473.52" shape="517.92,829.34 520.36,829.33 529.86,828.27 546.13,839.94 559.65,845.94 594.77,864.17 622.28,878.39 651.26,889.91 692.58,902.59 736.22,911.53 811.10,922.24 858.88,929.02 905.56,935.26 939.65,941.08 971.08,944.69"/>
    </edge>
    <edge id="1104451985" from="2764549026" to="290019196" priority="6" type="highway.secondary_link" spreadType="center" shape="424.76,862.66 459.78,848.95 462.05,847.88 469.33,844.43">
        <lane id="1104451985_0" index="0" disallow="tram rail_urban rail rail_electric rail_fast ship container cable_car subway aircraft wheelchair scooter drone" speed="22.22" length="41.33" shape="424.17,861.17 459.14,847.49 461.36,846.43 462.45,845.91"/>
        <lane id="1104451985_1" index="1" disallow="tram rail_urban rail rail_electric rail_fast ship container cable_car subway aircraft wheelchair scooter drone" speed="22.22" length="41.33" shape="425.34,864.15 460.42,850.42 462.73,849.32 463.82,848.81"/>
        <param key="ref" value="D 86"/>
    </edge>
    <edge id="193157616" from="325167525" to="2036713373" priority="6" type="highway.secondary_link" spreadType="center" shape="474.76,863.15 465.31,862.74 456.18,863.25 425.25,871.39 408.42,871.77">
        <lane id="193157616_0" index="0" disallow="tram rail_urban rail rail_electric rail_fast ship container cable_car subway aircraft wheelchair scooter drone" speed="22.22" length="60.85" shape="468.19,862.87 465.31,862.74 456.18,863.25 425.25,871.39 408.42,871.77"/>
        <param key="ref" value="D 86"/>
    </edge>
    <edge id="193157617" from="325168042" to="2036713353" priority="12" type="highway.primary" spreadType="center" shape="513.70,841.09 528.43,850.00 555.29,859.35 586.34,875.05 612.77,887.75 648.20,901.59 687.58,914.16 720.76,921.54 757.70,928.01 1333.34,1008.46 1451.51,1028.33 1459.51,1028.84 1466.63,1027.77 1473.59,1024.86">
        <lane id="193157617_0" index="0" disallow="tram rail_urban rail rail_electric rail_fast ship container cable_car subway aircraft wheelchair scooter drone" speed="25.00" length="976.19" shape="521.60,844.00 529.12,848.55 555.92,857.88 587.04,873.61 613.41,886.28 648.74,900.08 688.00,912.61 721.07,919.97 757.95,926.43 1333.58,1006.88 1451.70,1026.73 1459.44,1027.23 1466.19,1026.22 1472.97,1023.39"/>
        <lane id="193157617_1" index="1" disallow="tram rail_urban rail rail_electric rail_fast ship container cable_car subway aircraft wheelchair scooter drone" speed="25.00" length="976.19" shape="519.94,846.74 527.75,851.46 554.66,860.83 585.63,876.48 612.13,889.22 647.67,903.10 687.16,915.70 720.45,923.11 757.45,929.59 1333.10,1010.04 1451.33,1029.92 1459.58,1030.45 1467.06,1029.33 1474.20,1026.34"/>
        <param key="ref" value="D 34"/>
    </edge>
    <edge id="22801854#0" from="2776100072" to="2333650492" priority="12" type="highway.primary" spreadType="center" shape="471.43,837.91 468.28,823.52 465.27,816.51 430.61,769.56 386.41,703.15 346.28,635.79 339.81,624.09 328.90,603.81 302.69,555.06 241.68,450.49 218.78,411.24 195.68,374.66 174.40,341.49 153.20,309.06 126.77,268.57 83.14,192.24 66.81,161.55 55.27,139.11 40.54,107.58 31.97,87.75 27.75,77.18 6.83,19.70">
        <lane id="22801854#0_0" index="0" disallow="tram rail_urban rail rail_electric rail_fast ship container cable_car subway aircraft wheelchair scooter drone" speed="25.00" length="936.26" shape="469.85,830.69 468.28,823.52 465.27,816.51 430.61,769.56 386.41,703.15 346.28,635.79 339.81,624.09 328.90,603.81 302.69,555.06 241.68,450.49 218.78,411.24 195.68,374.66 174.40,341.49 153.20,309.06 126.77,268.57 83.14,192.24 66.81,161.55 55.27,139.11 40.54,107.58 31.97,87.75 27.75,77.18 6.88,19.83"/>
        <param key="ref" value="D 34"/>
    </edge>
    <edge id="22801854#1" from="2333650492" to="2333650366" priority="12" type="highway.primary" spreadType="center">
        <lane id="22801854#1_0" index="0" disallow="tram rail_urban rail rail_electric rail_fast ship container cable_car subway aircraft wheelchair scooter drone" speed="25.00" length="20.71" shape="6.79,19.56 -0.00,-0.00"/>
        <param key="ref" value="D 34"/>
    </edge>
    <edge id="26464636" from="2036713421" to="2755106692" priority="12" type="highway.primary" spreadType="center" shape="1469.47,1047.28 1462.91,1042.49 1456.25,1039.02 1446.38,1036.79 1437.26,1035.41 1384.27,1027.00 1332.58,1018.00 1008.00,972.85 783.42,941.11 736.03,933.52 684.67,922.32 644.14,909.76 605.37,894.11 555.80,870.28 535.20,864.05 523.26,861.99 519.94,862.16 509.45,862.71">
        <lane id="26464636_0" index="0" disallow="tram rail_urban rail rail_electric rail_fast ship container cable_car subway aircraft wheelchair scooter drone" speed="25.00" length="975.44" shape="1468.53,1048.57 1462.07,1043.85 1455.70,1040.53 1446.08,1038.36 1437.01,1036.99 1384.01,1028.58 1332.33,1019.58 1007.78,974.43 783.18,942.69 735.73,935.09 684.26,923.87 643.60,911.27 604.72,895.57 555.22,871.77 534.83,865.61 523.16,863.60 520.02,863.76 516.97,863.92"/>
        <lane id="26464636_1" index="1" disallow="tram rail_urban rail rail_electric rail_fast ship container cable_car subway aircraft wheelchair scooter drone" speed="25.00" length="975.44" shape="1470.42,1045.99 1463.76,1041.13 1456.81,1037.50 1446.67,1035.21 1437.50,1033.83 1384.54,1025.42 1332.83,1016.42 1008.23,971.26 783.66,939.53 736.33,931.94 685.07,920.77 644.68,908.25 606.01,892.64 556.38,868.78 535.57,862.49 523.36,860.38 519.86,860.56 516.81,860.72"/>
        <param key="ref" value="D 34"/>
    </edge>
    <edge id="26464639#0" from="2776100072" to="2755106741" priority="12" type="highway.primary" spreadType="center" shape="471.43,837.91 475.01,832.70 479.88,828.67 485.67,826.13 491.95,825.26">
        <lane id="26464639#0_0" index="0" disallow="tram rail_urban rail rail_electric rail_fast ship container cable_car subway aircraft wheelchair scooter drone" speed="27.78" length="8.88" shape="473.93,831.51 479.03,827.29 482.33,825.84"/>
        <lane id="26464639#0_1" index="1" disallow="tram rail_urban rail rail_electric rail_fast ship container cable_car subway aircraft wheelchair scooter drone" speed="27.78" length="8.88" shape="476.67,833.41 480.73,830.04 482.80,829.13"/>
    </edge>
    <edge id="26464639#1" from="2755106741" to="245160561" priority="12" type="highway.primary" spreadType="center" shape="491.95,825.26 497.40,825.92 502.54,827.86 507.06,830.98">
        <lane id="26464639#1_0" index="0" disallow="tram rail_urban rail rail_electric rail_fast ship container cable_car subway aircraft wheelchair scooter drone" speed="27.78" length="9.24" shape="494.36,823.94 497.79,824.36 503.29,826.44 503.85,826.82"/>
        <lane id="26464639#1_1" index="1" disallow="tram rail_urban rail rail_electric rail_fast ship container cable_car subway aircraft wheelchair scooter drone" speed="27.78" length="9.24" shape="493.98,827.12 497.02,827.49 501.80,829.29 502.04,829.46"/>
    </edge>
    <edge id="26464639#2" from="245160561" to="325168042" priority="12" type="highway.primary" spreadType="center" shape="507.06,830.98 511.07,835.58 513.70,841.09">
        <lane id="26464639#2_0" index="0" disallow="tram rail_urban rail rail_electric rail_fast ship container cable_car subway aircraft wheelchair scooter drone" speed="27.78" length="0.20" shape="514.20,838.43 514.29,838.61"/>
        <lane id="26464639#2_1" index="1" disallow="tram rail_urban rail rail_electric rail_fast ship container cable_car subway aircraft wheelchair scooter drone" speed="27.78" length="0.20" shape="511.50,840.20 511.59,840.38"/>
    </edge>
    <edge id="26464639#3" from="325168042" to="2755106692" priority="12" type="highway.primary" spreadType="center" shape="513.70,841.09 514.79,848.64 513.32,856.14 509.45,862.71">
        <lane id="26464639#3_0" index="0" disallow="tram rail_urban rail rail_electric rail_fast ship container cable_car subway aircraft wheelchair scooter drone" speed="27.78" length="7.19" shape="516.34,849.04 514.83,856.71 514.60,857.11"/>
        <lane id="26464639#3_1" index="1" disallow="tram rail_urban rail rail_electric rail_fast ship container cable_car subway aircraft wheelchair scooter drone" speed="27.78" length="7.19" shape="512.99,849.49 511.81,855.48"/>
    </edge>
    <edge id="26464639#4" from="2755106692" to="325167523" priority="12" type="highway.primary" spreadType="center">
        <lane id="26464639#4_0" index="0" disallow="tram rail_urban rail rail_electric rail_fast ship container cable_car subway aircraft wheelchair scooter drone" speed="27.78" length="4.55" shape="508.55,865.65 505.15,868.67"/>
        <lane id="26464639#4_1" index="1" disallow="tram rail_urban rail rail_electric rail_fast ship container cable_car subway aircraft wheelchair scooter drone" speed="27.78" length="4.55" shape="506.43,863.25 503.02,866.27"/>
    </edge>
    <edge id="26464639#5" from="325167523" to="290019203" priority="12" type="highway.primary" spreadType="center" shape="504.43,867.16 499.56,869.57 494.26,870.76 488.82,870.66 483.56,869.30">
        <lane id="26464639#5_0" index="0" disallow="tram rail_urban rail rail_electric rail_fast ship container cable_car subway aircraft wheelchair scooter drone" speed="27.78" length="9.01" shape="499.28,871.27 494.42,872.36 489.24,872.27"/>
        <lane id="26464639#5_1" index="1" disallow="tram rail_urban rail rail_electric rail_fast ship container cable_car subway aircraft wheelchair scooter drone" speed="27.78" length="9.01" shape="497.83,868.32 494.09,869.16 490.05,869.09"/>
    </edge>
    <edge id="26464639#6" from="290019203" to="325167525" priority="12" type="highway.primary" spreadType="center" shape="483.56,869.30 478.80,866.75 474.76,863.15">
        <lane id="26464639#6_0" index="0" disallow="tram rail_urban rail rail_electric rail_fast ship container cable_car subway aircraft wheelchair scooter drone" speed="27.78" length="10.84" shape="482.93,870.78 477.87,868.07 473.78,864.42"/>
        <lane id="26464639#6_1" index="1" disallow="tram rail_urban rail rail_electric rail_fast ship container cable_car subway aircraft wheelchair scooter drone" speed="27.78" length="10.84" shape="484.44,867.96 479.72,865.43 475.91,862.03"/>
    </edge>
    <edge id="26464639#7" from="325167525" to="290019196" priority="12" type="highway.primary" spreadType="center" shape="474.76,863.15 471.11,857.55 469.25,851.12 469.33,844.43">
        <lane id="26464639#7_0" index="0" disallow="tram rail_urban rail rail_electric rail_fast ship container cable_car subway aircraft wheelchair scooter drone" speed="27.78" length="7.47" shape="470.29,859.21 469.64,858.22 467.65,851.26"/>
        <lane id="26464639#7_1" index="1" disallow="tram rail_urban rail rail_electric rail_fast ship container cable_car subway aircraft wheelchair scooter drone" speed="27.78" length="7.47" shape="472.97,857.46 472.59,856.87 470.96,851.28"/>
    </edge>
    <edge id="26464639#8" from="290019196" to="2776100072" priority="12" type="highway.primary" spreadType="center">
        <lane id="26464639#8_0" index="0" disallow="tram rail_urban rail rail_electric rail_fast ship container cable_car subway aircraft wheelchair scooter drone" speed="27.78" length="4.54" shape="468.77,840.97 470.16,836.65"/>
        <lane id="26464639#8_1" index="1" disallow="tram rail_urban rail rail_electric rail_fast ship container cable_car subway aircraft wheelchair scooter drone" speed="27.78" length="4.54" shape="471.81,841.95 473.21,837.63"/>
    </edge>
    <edge id="271493042" from="325167660" to="2755106741" priority="12" type="highway.primary" spreadType="center" shape="453.73,786.97 469.33,805.63 480.20,817.67 482.41,819.10 491.95,825.26">
        <lane id="271493042_0" index="0" disallow="tram rail_urban rail rail_electric rail_fast ship container cable_car subway aircraft wheelchair scooter drone" speed="27.78" length="45.01" shape="454.95,785.94 470.54,804.58 481.25,816.44 483.28,817.76 484.81,818.75"/>
        <lane id="271493042_1" index="1" disallow="tram rail_urban rail rail_electric rail_fast ship container cable_car subway aircraft wheelchair scooter drone" speed="27.78" length="45.01" shape="452.50,787.99 468.12,806.68 479.15,818.90 481.55,820.45 483.08,821.44"/>
        <param key="ref" value="D 34"/>
    </edge>
    <edge id="29499165" from="325170789" to="245160561" priority="1" type="highway.track" shape="970.89,946.28 939.42,942.67 905.31,936.84 858.67,930.60 810.88,923.82 735.94,913.11 692.18,904.14 650.72,891.42 621.62,879.84 594.03,865.60 558.96,847.38 545.33,841.34 529.43,829.93 520.45,830.93 507.06,830.98">
        <lane id="29499165_0" index="0" allow="pedestrian motorcycle moped bicycle" speed="5.56" length="473.03" shape="970.71,947.87 939.20,944.25 905.07,938.42 858.45,932.19 810.65,925.40 735.67,914.68 691.79,905.69 650.19,892.93 620.96,881.30 593.30,867.02 558.27,848.83 544.53,842.73 529.00,831.59 520.54,832.53 517.93,832.54"/>
    </edge>
    <edge id="29499708" from="290019207" to="290019203" priority="3" type="highway.residential" spreadType="center" shape="514.73,924.73 496.52,896.64 487.62,877.85 483.56,869.30">
        <lane id="29499708_0" index="0" disallow="tram rail_urban rail rail_electric rail_fast ship container cable_car subway aircraft wheelchair scooter drone" speed="13.89" length="56.72" shape="514.73,924.73 496.52,896.64 487.62,877.85 486.56,875.64"/>
    </edge>
    <edge id="29499716" from="325167523" to="290019207" priority="3" type="highway.residential" spreadType="center" shape="504.43,867.16 501.31,878.66 501.70,885.85 517.52,923.23">
        <lane id="29499716_0" index="0" disallow="tram rail_urban rail rail_electric rail_fast ship container cable_car subway aircraft wheelchair scooter drone" speed="13.89" length="52.53" shape="502.55,874.10 501.31,878.66 501.70,885.85 517.52,923.23"/>
    </edge>

    <tlLogic id="2333650492" type="static" programID="0" offset="0">
        <phase duration="80" state="G"/>
        <phase duration="5"  state="y"/>
        <phase duration="5"  state="r"/>
    </tlLogic>

    <junction id="2036713353" type="dead_end" x="1473.59" y="1024.86" incLanes="193157617_0 193157617_1" intLanes="" shape="1472.35,1021.91 1474.82,1027.81"/>
    <junction id="2036713373" type="dead_end" x="408.42" y="871.77" incLanes="193157616_0" intLanes="" shape="408.45,873.37 408.38,870.17"/>
    <junction id="2036713421" type="dead_end" x="1469.47" y="1047.28" incLanes="" intLanes="" shape="1471.36,1044.70 1467.59,1049.87"/>
    <junction id="2333650366" type="dead_end" x="0.00" y="0.00" incLanes="22801854#1_0" intLanes="" shape="-1.51,0.52 1.51,-0.52"/>
    <junction id="2333650492" type="traffic_light" x="6.83" y="19.70" incLanes="22801854#0_0" intLanes=":2333650492_0_0" shape="5.38,20.38 8.39,19.29 8.30,19.04 5.28,20.09">
        <request index="0" response="0" foes="0" cont="0"/>
    </junction>
    <junction id="245160561" type="priority" x="507.06" y="830.98" incLanes="29499165_0 26464639#1_0 26464639#1_1" intLanes=":245160561_0_0 :245160561_1_0 :245160561_2_0 :245160561_2_1" shape="510.63,842.09 515.66,837.76 515.14,835.76 515.36,835.05 515.90,834.55 516.76,834.25 517.93,834.14 517.91,827.74 515.00,827.85 512.76,828.01 510.89,828.05 509.13,827.77 507.18,826.99 504.76,825.51 501.13,830.78 503.73,832.61 505.59,834.09 506.97,835.50 508.10,837.13 509.24,839.23">
        <request index="0" response="0100" foes="0100" cont="0"/>
        <request index="1" response="0000" foes="0000" cont="0"/>
        <request index="2" response="0000" foes="0001" cont="0"/>
        <request index="3" response="0000" foes="0000" cont="0"/>
    </junction>
    <junction id="2755106692" type="priority" x="509.45" y="862.71" incLanes="26464636_0 26464636_1 26464639#3_0 26464639#3_1" intLanes=":2755106692_0_0 :2755106692_0_1 :2755106692_2_0 :2755106692_2_1" shape="517.06,865.52 516.72,859.13 515.97,859.03 515.79,858.86 515.73,858.62 515.79,858.31 515.98,857.91 510.35,854.63 509.42,857.84 508.79,858.87 507.96,859.79 506.84,860.78 505.37,862.06 509.61,866.85 511.96,865.43 512.98,865.32 514.08,865.39 515.39,865.51">
        <request index="0" response="0100" foes="0100" cont="0"/>
        <request index="1" response="1100" foes="1100" cont="0"/>
        <request index="2" response="0000" foes="0011" cont="0"/>
        <request index="3" response="0000" foes="0010" cont="0"/>
    </junction>
    <junction id="2755106741" type="priority" x="491.95" y="825.26" incLanes="271493042_0 271493042_1 26464639#0_0 26464639#0_1" intLanes=":2755106741_0_0 :2755106741_0_1 :2755106741_2_0 :2755106741_2_1" shape="493.78,828.71 494.55,822.35 492.44,821.97 490.96,821.41 489.83,820.68 487.47,818.69 485.68,817.41 482.21,822.78 482.76,823.30 482.81,823.54 482.72,823.77 482.48,823.99 482.10,824.20 483.04,830.78 485.20,829.81 486.84,829.12 488.25,828.67 489.70,828.46 491.45,828.48">
        <request index="0" response="0100" foes="0100" cont="0"/>
        <request index="1" response="1100" foes="1100" cont="0"/>
        <request index="2" response="0000" foes="0011" cont="0"/>
        <request index="3" response="0000" foes="0010" cont="0"/>