<?xml version="1.0" encoding="UTF-8"?>

<!-- generated on 2024-09-03 01:37:08 by Eclipse SUMO netconvert Version 1.20.0
<configuration xmlns:xsi="http://www.w3.org/2001/XMLSchema-instance" xsi:noNamespaceSchemaLocation="http://sumo.dlr.de/xsd/netconvertConfiguration.xsd">

    <input>
        <osm-files value="train_files/intersection/easy/osm_files/map(56).osm"/>
    </input>

    <output>
        <output-file value="train_files/intersection/easy/outputs/map(56)_dict/map(56)/map(56).net.xml"/>
    </output>

    <projection>
        <proj.utm value="true"/>
    </projection>

    <building_defaults>
        <default.junctions.keep-clear value="false"/>
    </building_defaults>

</configuration>
-->

<net version="1.20" junctionCornerDetail="5" limitTurnSpeed="5.50" xmlns:xsi="http://www.w3.org/2001/XMLSchema-instance" xsi:noNamespaceSchemaLocation="http://sumo.dlr.de/xsd/net_file.xsd">

    <location netOffset="-462302.05,-5413852.22" convBoundary="0.00,0.00,86.52,156.39" origBoundary="2.485854,48.876482,2.487031,48.877892" projParameter="+proj=utm +zone=31 +ellps=WGS84 +datum=WGS84 +units=m +no_defs"/>

    <type id="highway.footway" priority="1" numLanes="1" speed="2.78" allow="pedestrian" oneway="1" width="2.00"/>
    <type id="highway.primary" priority="12" numLanes="2" speed="27.78" disallow="tram rail_urban rail rail_electric rail_fast ship container cable_car subway aircraft wheelchair scooter drone" oneway="0"/>
    <type id="highway.primary_link" priority="7" numLanes="1" speed="22.22" disallow="tram rail_urban rail rail_electric rail_fast ship container cable_car subway aircraft wheelchair scooter drone" oneway="0"/>
    <type id="highway.unclassified" priority="4" numLanes="1" speed="13.89" disallow="tram rail_urban rail rail_electric rail_fast ship container cable_car subway aircraft wheelchair scooter drone" oneway="0"/>

    <edge id=":1248152806_0" function="internal">
        <lane id=":1248152806_0_0" index="0" disallow="tram rail_urban rail rail_electric rail_fast ship container cable_car subway aircraft wheelchair scooter drone" speed="27.78" length="6.82" shape="48.00,146.25 41.56,144.28"/>
        <lane id=":1248152806_0_1" index="1" disallow="tram rail_urban rail rail_electric rail_fast ship container cable_car subway aircraft wheelchair scooter drone" speed="27.78" length="6.82" shape="49.18,143.28 42.58,141.24"/>
    </edge>
    <edge id=":1248152806_2" function="internal">
        <lane id=":1248152806_2_0" index="0" disallow="tram rail_urban rail rail_electric rail_fast ship container cable_car subway aircraft wheelchair scooter drone" speed="3.65" length="1.44" shape="49.18,143.28 48.36,142.09"/>
    </edge>
    <edge id=":1248152806_8" function="internal">
        <lane id=":1248152806_8_0" index="0" disallow="tram rail_urban rail rail_electric rail_fast ship container cable_car subway aircraft wheelchair scooter drone" speed="3.65" length="3.23" shape="48.36,142.09 48.29,141.20 48.95,140.60 50.36,140.30"/>
    </edge>
    <edge id=":1248152806_3" function="internal">
        <lane id=":1248152806_3_0" index="0" disallow="tram rail_urban rail rail_electric rail_fast ship container cable_car subway aircraft wheelchair scooter drone" speed="9.15" length="7.02" shape="47.38,132.05 48.20,133.98 48.83,135.36 49.78,136.41 51.55,137.33"/>
    </edge>
    <edge id=":1248152806_4" function="internal">
        <lane id=":1248152806_4_0" index="0" disallow="tram rail_urban rail rail_electric rail_fast ship container cable_car subway aircraft wheelchair scooter drone" speed="6.87" length="16.14" shape="47.38,132.05 49.37,137.44 49.23,140.77 46.97,142.04 42.58,141.24"/>
    </edge>
    <edge id=":1248152806_5" function="internal">
        <lane id=":1248152806_5_0" index="0" disallow="tram rail_urban rail rail_electric rail_fast ship container cable_car subway aircraft wheelchair scooter drone" speed="27.78" length="7.18" shape="44.61,135.17 51.55,137.33"/>
        <lane id=":1248152806_5_1" index="1" disallow="tram rail_urban rail rail_electric rail_fast ship container cable_car subway aircraft wheelchair scooter drone" speed="27.78" length="7.18" shape="43.59,138.21 50.36,140.30"/>
    </edge>
    <edge id=":1248152806_7" function="internal">
        <lane id=":1248152806_7_0" index="0" disallow="tram rail_urban rail rail_electric rail_fast ship container cable_car subway aircraft wheelchair scooter drone" speed="3.65" length="1.44" shape="43.59,138.21 44.48,139.35"/>
    </edge>
    <edge id=":1248152806_9" function="internal">
        <lane id=":1248152806_9_0" index="0" disallow="tram rail_urban rail rail_electric rail_fast ship container cable_car subway aircraft wheelchair scooter drone" speed="3.65" length="3.23" shape="44.48,139.35 44.60,140.23 43.97,140.87 42.58,141.24"/>
    </edge>
    <edge id=":1248152837_0" function="internal">
        <lane id=":1248152837_0_0" index="0" disallow="tram rail_urban rail rail_electric rail_fast ship container cable_car subway aircraft wheelchair scooter drone" speed="16.11" length="9.67" shape="46.14,119.45 45.34,122.18 45.06,124.13 45.19,126.11 45.63,128.94"/>
    </edge>
    <edge id=":1248152837_1" function="internal">
        <lane id=":1248152837_1_0" index="0" disallow="tram rail_urban rail rail_electric rail_fast ship container cable_car subway aircraft wheelchair scooter drone" speed="27.78" length="9.87" shape="46.14,119.45 45.16,122.25 44.38,124.13 43.51,125.97 42.29,128.69"/>
        <lane id=":1248152837_1_1" index="1" disallow="tram rail_urban rail rail_electric rail_fast ship container cable_car subway aircraft wheelchair scooter drone" speed="27.78" length="9.87" shape="43.09,118.46 42.15,121.18 41.38,123.00 40.54,124.79 39.35,127.42"/>
    </edge>
    <edge id=":1776313424_0" function="internal">
        <lane id=":1776313424_0_0" index="0" disallow="tram rail_urban rail rail_electric rail_fast ship container cable_car subway aircraft wheelchair scooter drone" speed="27.78" length="2.28" shape="17.21,135.21 16.46,135.04 15.96,134.85 15.48,134.62 14.76,134.33"/>
        <lane id=":1776313424_0_1" index="1" disallow="tram rail_urban rail rail_electric rail_fast ship container cable_car subway aircraft wheelchair scooter drone" speed="27.78" length="2.28" shape="17.72,132.05 17.15,131.92 16.79,131.76 16.44,131.56 15.90,131.33"/>
    </edge>
    <edge id=":1776313424_2" function="internal">
        <lane id=":1776313424_2_0" index="0" disallow="tram rail_urban rail rail_electric rail_fast ship container cable_car subway aircraft wheelchair scooter drone" speed="7.76" length="2.13" shape="17.72,132.05 15.59,132.16"/>
    </edge>
    <edge id=":243069478_0" function="internal">
        <lane id=":243069478_0_0" index="0" disallow="tram rail_urban rail rail_electric rail_fast ship container cable_car subway aircraft wheelchair scooter drone" speed="27.78" length="23.48" shape="38.95,143.47 33.04,140.87 28.38,138.59 23.63,136.68 17.41,135.24"/>
        <lane id=":243069478_0_1" index="1" disallow="tram rail_urban rail rail_electric rail_fast ship container cable_car subway aircraft wheelchair scooter drone" speed="27.78" length="23.48" shape="40.11,140.49 34.10,137.86 29.22,135.52 24.24,133.55 17.91,132.08"/>
    </edge>
    <edge id=":243069478_2" function="internal">
        <lane id=":243069478_2_0" index="0" disallow="tram rail_urban rail rail_electric rail_fast ship container cable_car subway aircraft wheelchair scooter drone" speed="3.65" length="1.44" shape="40.11,140.49 39.28,139.31"/>
    </edge>
    <edge id=":243069478_8" function="internal">
        <lane id=":243069478_8_0" index="0" disallow="tram rail_urban rail rail_electric rail_fast ship container cable_car subway aircraft wheelchair scooter drone" speed="3.65" length="3.23" shape="39.28,139.31 39.20,138.42 39.86,137.82 41.27,137.51"/>
    </edge>
    <edge id=":243069478_3" function="internal">
        <lane id=":243069478_3_0" index="0" disallow="tram rail_urban rail rail_electric rail_fast ship container cable_car subway aircraft wheelchair scooter drone" speed="5.66" length="7.72" shape="42.10,128.03 40.84,130.32 40.47,132.17 41.00,133.57 42.43,134.53"/>
    </edge>
    <edge id=":243069478_4" function="internal">
        <lane id=":243069478_4_0" index="0" disallow="tram rail_urban rail rail_electric rail_fast ship container cable_car subway aircraft wheelchair scooter drone" speed="12.43" length="23.79" shape="39.62,125.99 36.06,129.61 31.26,131.83 25.21,132.65 17.91,132.08"/>
    </edge>
    <edge id=":243069478_5" function="internal">
        <lane id=":243069478_5_0" index="0" disallow="tram rail_urban rail rail_electric rail_fast ship container cable_car subway aircraft wheelchair scooter drone" speed="27.78" length="22.10" shape="22.63,126.05 27.79,129.40 32.04,131.18 36.53,132.51 42.43,134.53"/>
        <lane id=":243069478_5_1" index="1" disallow="tram rail_urban rail rail_electric rail_fast ship container cable_car subway aircraft wheelchair scooter drone" speed="27.78" length="22.10" shape="20.71,128.62 25.99,132.02 30.50,133.95 35.25,135.43 41.27,137.51"/>
    </edge>
    <edge id=":243069478_7" function="internal">
        <lane id=":243069478_7_0" index="0" disallow="tram rail_urban rail rail_electric rail_fast ship container cable_car subway aircraft wheelchair scooter drone" speed="5.21" length="3.23" shape="20.71,128.62 23.03,130.70 23.06,130.81"/>
    </edge>
    <edge id=":243069478_9" function="internal">
        <lane id=":243069478_9_0" index="0" disallow="tram rail_urban rail rail_electric rail_fast ship container cable_car subway aircraft wheelchair scooter drone" speed="5.21" length="6.70" shape="23.06,130.81 23.34,131.97 21.63,132.43 17.91,132.08"/>
    </edge>
    <edge id=":243073649_0" function="internal">
        <lane id=":243073649_0_0" index="0" disallow="tram rail_urban rail rail_electric rail_fast ship container cable_car subway aircraft wheelchair scooter drone" speed="27.78" length="3.55" shape="19.07,124.07 20.13,124.54 20.85,124.87 21.53,125.27 22.47,125.93"/>
        <lane id=":243073649_0_1" index="1" disallow="tram rail_urban rail rail_electric rail_fast ship container cable_car subway aircraft wheelchair scooter drone" speed="27.78" length="3.55" shape="17.74,126.98 18.62,127.36 19.21,127.63 19.78,127.95 20.55,128.50"/>
    </edge>
    <edge id=":2528038340_0" function="internal">
        <lane id=":2528038340_0_0" index="0" disallow="tram rail_urban rail rail_electric rail_fast ship container cable_car subway aircraft wheelchair scooter drone" speed="27.78" length="2.82" shape="42.21,128.87 43.13,126.52"/>
        <lane id=":2528038340_0_1" index="1" disallow="tram rail_urban rail rail_electric rail_fast ship container cable_car subway aircraft wheelchair scooter drone" speed="27.78" length="2.82" shape="39.27,127.60 40.48,124.72"/>
    </edge>
    <edge id=":2528038387_0" function="internal">
        <lane id=":2528038387_0_0" index="0" disallow="tram rail_urban rail rail_electric rail_fast ship container cable_car subway aircraft wheelchair scooter drone" speed="27.78" length="1.32" shape="37.98,143.08 39.13,143.54"/>
        <lane id=":2528038387_0_1" index="1" disallow="tram rail_urban rail rail_electric rail_fast ship container cable_car subway aircraft wheelchair scooter drone" speed="27.78" length="1.32" shape="38.99,140.05 40.29,140.56"/>
    </edge>
    <edge id=":2528038387_2" function="internal">
        <lane id=":2528038387_2_0" index="0" disallow="tram rail_urban rail rail_electric rail_fast ship container cable_car subway aircraft wheelchair scooter drone" speed="27.78" length="1.63" shape="42.62,134.60 41.02,133.98"/>
        <lane id=":2528038387_2_1" index="1" disallow="tram rail_urban rail rail_electric rail_fast ship container cable_car subway aircraft wheelchair scooter drone" speed="27.78" length="1.63" shape="41.46,137.58 40.01,137.01"/>
    </edge>
    <edge id=":2528038392_0" function="internal">
        <lane id=":2528038392_0_0" index="0" disallow="tram rail_urban rail rail_electric rail_fast ship container cable_car subway aircraft wheelchair scooter drone" speed="22.22" length="3.39" shape="45.66,129.14 45.14,125.79"/>
    </edge>
    <edge id=":6837507904_0" function="internal">
        <lane id=":6837507904_0_0" index="0" disallow="tram rail_urban rail rail_electric rail_fast ship container cable_car subway aircraft wheelchair scooter drone" speed="3.65" length="4.67" shape="87.11,154.90 87.93,156.09 88.00,156.98 87.34,157.57 85.93,157.87"/>
    </edge>

    <edge id="-901091396#0" from="1248152806" to="6837507904" priority="12" type="highway.primary">
        <lane id="-901091396#0_0" index="0" disallow="tram rail_urban rail rail_electric rail_fast ship container cable_car subway aircraft wheelchair scooter drone" speed="27.78" length="39.54" shape="51.55,137.33 88.29,151.93"/>
        <lane id="-901091396#0_1" index="1" disallow="tram rail_urban rail rail_electric rail_fast ship container cable_car subway aircraft wheelchair scooter drone" speed="27.78" length="39.54" shape="50.36,140.30 87.11,154.90"/>
        <param key="ref" value="D 902"/>
    </edge>
    <edge id="-901091396#1" from="2528038387" to="1248152806" priority="12" type="highway.primary">
        <lane id="-901091396#1_0" index="0" disallow="tram rail_urban rail rail_electric rail_fast ship container cable_car subway aircraft wheelchair scooter drone" speed="27.78" length="3.78" shape="41.02,133.98 44.61,135.17"/>
        <lane id="-901091396#1_1" index="1" disallow="tram rail_urban rail rail_electric rail_fast ship container cable_car subway aircraft wheelchair scooter drone" speed="27.78" length="3.78" shape="40.01,137.01 43.59,138.21"/>
        <param key="ref" value="D 902"/>
    </edge>
    <edge id="-901091396#2" from="243069478" to="2528038387" priority="12" type="highway.primary">
        <lane id="-901091396#2_0" index="0" disallow="tram rail_urban rail rail_electric rail_fast ship container cable_car subway aircraft wheelchair scooter drone" speed="27.78" length="0.20" shape="42.43,134.53 42.62,134.60"/>
        <lane id="-901091396#2_1" index="1" disallow="tram rail_urban rail rail_electric rail_fast ship container cable_car subway aircraft wheelchair scooter drone" speed="27.78" length="0.20" shape="41.27,137.51 41.46,137.58"/>
        <param key="ref" value="D 902"/>
    </edge>
    <edge id="108872336#0" from="1248152837" to="2528038392" priority="7" type="highway.primary_link" spreadType="center">
        <lane id="108872336#0_0" index="0" disallow="tram rail_urban rail rail_electric rail_fast ship container cable_car subway aircraft wheelchair scooter drone" speed="22.22" length="0.20" shape="45.63,128.94 45.66,129.14"/>
    </edge>
    <edge id="108872336#1" from="2528038392" to="1248152806" priority="7" type="highway.primary_link" spreadType="center" shape="45.12,125.69 46.35,129.89 52.53,142.89">
        <lane id="108872336#1_0" index="0" disallow="tram rail_urban rail rail_electric rail_fast ship container cable_car subway aircraft wheelchair scooter drone" speed="22.22" length="6.66" shape="45.14,125.79 46.35,129.89 47.38,132.05"/>
    </edge>
    <edge id="166149947#0" from="1776313421" to="243073649" priority="12" type="highway.primary" spreadType="center">
        <lane id="166149947#0_0" index="0" disallow="tram rail_urban rail rail_electric rail_fast ship container cable_car subway aircraft wheelchair scooter drone" speed="27.78" length="12.56" shape="7.65,118.85 19.07,124.07"/>
        <lane id="166149947#0_1" index="1" disallow="tram rail_urban rail rail_electric rail_fast ship container cable_car subway aircraft wheelchair scooter drone" speed="27.78" length="12.56" shape="6.32,121.76 17.74,126.98"/>
        <param key="ref" value="D 902"/>
    </edge>
    <edge id="166149947#1" from="243073649" to="243069478" priority="12" type="highway.primary" spreadType="center">
        <lane id="166149947#1_0" index="0" disallow="tram rail_urban rail rail_electric rail_fast ship container cable_car subway aircraft wheelchair scooter drone" speed="27.78" length="0.20" shape="22.47,125.93 22.63,126.05"/>
        <lane id="166149947#1_1" index="1" disallow="tram rail_urban rail rail_electric rail_fast ship container cable_car subway aircraft wheelchair scooter drone" speed="27.78" length="0.20" shape="20.55,128.50 20.71,128.62"/>
        <param key="ref" value="D 902"/>
    </edge>
    <edge id="166149950" from="1776313424" to="1776313419" priority="4" type="highway.unclassified" spreadType="center" shape="17.62,133.65 9.57,127.77 0.00,123.65">
        <lane id="166149950_0" index="0" disallow="tram rail_urban rail rail_electric rail_fast ship container cable_car subway aircraft wheelchair scooter drone" speed="13.89" length="17.87" shape="15.59,132.16 9.57,127.77 0.00,123.65"/>
    </edge>
    <edge id="22662229" from="237799025" to="1248152837" priority="12" type="highway.primary" spreadType="center" shape="26.72,0.00 27.05,7.08 28.41,15.04 32.16,22.85 37.97,30.96 53.68,44.76 59.36,52.14 61.70,60.17 60.79,69.03 44.23,120.13">
        <lane id="22662229_0" index="0" disallow="tram rail_urban rail rail_electric rail_fast ship container cable_car subway aircraft wheelchair scooter drone" speed="27.78" length="133.78" shape="28.32,-0.07 28.64,6.91 29.94,14.55 33.54,22.03 39.17,29.88 54.86,43.66 60.81,51.40 63.32,60.02 62.37,69.36 46.14,119.45"/>
        <lane id="22662229_1" index="1" disallow="tram rail_urban rail rail_electric rail_fast ship container cable_car subway aircraft wheelchair scooter drone" speed="27.78" length="133.78" shape="25.12,0.07 25.45,7.25 26.87,15.53 30.78,23.67 36.78,32.04 52.51,45.86 57.91,52.88 60.08,60.32 59.22,68.70 43.09,118.46"/>
        <param key="ref" value="D 30"/>
    </edge>
    <edge id="22662601#0" from="243069478" to="1776313424" priority="12" type="highway.primary" spreadType="center">
        <lane id="22662601#0_0" index="0" disallow="tram rail_urban rail rail_electric rail_fast ship container cable_car subway aircraft wheelchair scooter drone" speed="27.78" length="0.20" shape="17.41,135.24 17.21,135.21"/>
        <lane id="22662601#0_1" index="1" disallow="tram rail_urban rail rail_electric rail_fast ship container cable_car subway aircraft wheelchair scooter drone" speed="27.78" length="0.20" shape="17.91,132.08 17.72,132.05"/>
        <param key="ref" value="D 902"/>
    </edge>
    <edge id="22662601#1" from="1776313424" to="1248152763" priority="12" type="highway.primary" spreadType="center">
        <lane id="22662601#1_0" index="0" disallow="tram rail_urban rail rail_electric rail_fast ship container cable_car subway aircraft wheelchair scooter drone" speed="27.78" length="6.24" shape="14.76,134.33 8.92,132.23"/>
        <lane id="22662601#1_1" index="1" disallow="tram rail_urban rail rail_electric rail_fast ship container cable_car subway aircraft wheelchair scooter drone" speed="27.78" length="6.24" shape="15.90,131.33 10.00,129.22"/>
        <param key="ref" value="D 902"/>
    </edge>
    <edge id="677591390#0" from="243073649" to="1776313424" priority="1" type="highway.footway" spreadType="center">
        <lane id="677591390#0_0" index="0" allow="pedestrian" speed="2.78" length="0.20" width="2.00" shape="19.13,130.01 19.06,130.19"/>
    </edge>
    <edge id="677591390#1" from="1776313424" to="6344481094" priority="1" type="highway.footway" spreadType="center">
        <lane id="677591390#1_0" index="0" allow="pedestrian" speed="2.78" length="0.20" width="2.00" shape="16.47,136.88 16.41,137.07"/>
    </edge>
    <edge id="677591391" from="6344481093" to="6344481094" priority="1" type="highway.footway" spreadType="center">
        <lane id="677591391_0" index="0" allow="pedestrian" speed="2.78" length="4.18" width="2.00" shape="10.68,140.29 14.46,138.50"/>
    </edge>
    <edge id="816093391#0" from="1248152837" to="2528038340" priority="12" type="highway.primary" spreadType="center">
        <lane id="816093391#0_0" index="0" disallow="tram rail_urban rail rail_electric rail_fast ship container cable_car subway aircraft wheelchair scooter drone" speed="27.78" length="0.20" shape="42.29,128.69 42.21,128.87"/>
        <lane id="816093391#0_1" index="1" disallow="tram rail_urban rail rail_electric rail_fast ship container cable_car subway aircraft wheelchair scooter drone" speed="27.78" length="0.20" shape="39.35,127.42 39.27,127.60"/>
        <param key="ref" value="D 30"/>
    </edge>
    <edge id="816093391#1" from="2528038340" to="243069478" priority="12" type="highway.primary" spreadType="center" shape="41.98,125.37 39.98,128.31 33.51,136.20">
        <lane id="816093391#1_0" index="0" disallow="tram rail_urban rail rail_electric rail_fast ship container cable_car subway aircraft wheelchair scooter drone" speed="27.78" length="1.68" shape="43.13,126.52 42.10,128.03"/>
        <lane id="816093391#1_1" index="1" disallow="tram rail_urban rail rail_electric rail_fast ship container cable_car subway aircraft wheelchair scooter drone" speed="27.78" length="1.68" shape="40.48,124.72 39.62,125.99"/>
        <param key="ref" value="D 30"/>
    </edge>
    <edge id="901091396#0" from="6837507904" to="1248152806" priority="12" type="highway.primary">
        <lane id="901091396#0_0" index="0" disallow="tram rail_urban rail rail_electric rail_fast ship container cable_car subway aircraft wheelchair scooter drone" speed="27.78" length="39.54" shape="84.74,160.85 48.00,146.25"/>
        <lane id="901091396#0_1" index="1" disallow="tram rail_urban rail rail_electric rail_fast ship container cable_car subway aircraft wheelchair scooter drone" speed="27.78" length="39.54" shape="85.93,157.87 49.18,143.28"/>
        <param key="ref" value="D 902"/>
    </edge>
    <edge id="901091396#1" from="1248152806" to="2528038387" priority="12" type="highway.primary">
        <lane id="901091396#1_0" index="0" disallow="tram rail_urban rail rail_electric rail_fast ship container cable_car subway aircraft wheelchair scooter drone" speed="27.78" length="3.78" shape="41.56,144.28 37.98,143.08"/>
        <lane id="901091396#1_1" index="1" disallow="tram rail_urban rail rail_electric rail_fast ship container cable_car subway aircraft wheelchair scooter drone" speed="27.78" length="3.78" shape="42.58,141.24 38.99,140.05"/>
        <param key="ref" value="D 902"/>
    </edge>
    <edge id="901091396#2" from="2528038387" to="243069478" priority="12" type="highway.primary">
        <lane id="901091396#2_0" index="0" disallow="tram rail_urban rail rail_electric rail_fast ship container cable_car subway aircraft wheelchair scooter drone" speed="27.78" length="0.20" shape="39.13,143.54 38.95,143.47"/>
        <lane id="901091396#2_1" index="1" disallow="tram rail_urban rail rail_electric rail_fast ship container cable_car subway aircraft wheelchair scooter drone" speed="27.78" length="0.20" shape="40.29,140.56 40.11,140.49"/>
        <param key="ref" value="D 902"/>
    </edge>

    <tlLogic id="2528038340" type="static" programID="0" offset="0">
        <phase duration="79" state="GG"/>
        <phase duration="6"  state="yy"/>
        <phase duration="5"  state="rr"/>
    </tlLogic>
    <tlLogic id="2528038387" type="static" programID="0" offset="0">
        <phase duration="79" state="GGGG"/>
        <phase duration="6"  state="yyyy"/>
        <phase duration="5"  state="rrrr"/>
    </tlLogic>
    <tlLogic id="2528038392" type="static" programID="0" offset="0">
        <phase duration="80" state="G"/>
        <phase duration="5"  state="y"/>
        <phase duration="5"  state="r"/>
    </tlLogic>

    <junction id="1248152763" type="dead_end" x="9.46" y="130.73" incLanes="22662601#1_0 22662601#1_1" intLanes="" shape="8.38,133.74 10.54,127.71"/>
    <junction id="1248152806" type="priority" x="52.53" y="142.89" incLanes="901091396#0_0 901091396#0_1 108872336#1_0 -901091396#1_0 -901091396#1_1" intLanes=":1248152806_0_0 :1248152806_0_1 :1248152806_8_0 :1248152806_3_0 :1248152806_4_0 :1248152806_5_0 :1248152806_5_1 :1248152806_9_0" shape="47.41,147.74 52.14,135.84 50.39,134.78 49.96,134.16 49.64,133.41 49.30,132.50 48.82,131.36 45.93,132.74 46.14,133.47 46.06,133.68 45.87,133.78 45.55,133.77 45.12,133.66 41.06,145.80">
        <request index="0" response="00000000" foes="10010000" cont="0"/>
        <request index="1" response="00000000" foes="10010000" cont="0"/>
        <request index="2" response="01100000" foes="01100000" cont="1"/>
        <request index="3" response="01100000" foes="01100000" cont="0"/>
        <request index="4" response="01100011" foes="11100011" cont="0"/>
        <request index="5" response="00000000" foes="00011100" cont="0"/>
        <request index="6" response="00000000" foes="00011100" cont="0"/>
        <request index="7" response="00010011" foes="00010011" cont="1"/>
    </junction>
    <junction id="1248152837" type="priority" x="44.23" y="120.13" incLanes="22662229_0 22662229_1" intLanes=":1248152837_0_0 :1248152837_1_0 :1248152837_1_1" shape="44.61,132.74 47.77,132.24 47.66,119.94 41.57,117.97 36.53,129.93 42.40,132.46">
        <request index="0" response="000" foes="000" cont="0"/>
        <request index="1" response="000" foes="000" cont="0"/>
        <request index="2" response="000" foes="000" cont="0"/>
    </junction>
    <junction id="1776313419" type="dead_end" x="0.00" y="123.65" incLanes="166149950_0" intLanes="" shape="-0.63,125.12 0.63,122.18"/>
    <junction id="1776313421" type="dead_end" x="6.99" y="120.31" incLanes="" intLanes="" shape="5.66,123.22 8.32,117.39"/>
    <junction id="1776313424" type="priority" x="17.62" y="133.65" incLanes="22662601#0_0 22662601#0_1 677591390#0_0" intLanes=":1776313424_0_0 :1776313424_0_1 :1776313424_2_0" shape="20.36,137.33 21.38,131.01 20.62,130.73 20.41,130.49 20.32,130.19 20.34,129.82 20.47,129.39 18.62,128.62 17.82,130.13 17.41,130.57 17.00,130.80 16.59,130.81 16.17,130.61 14.20,135.82 15.11,137.74 16.99,138.41">
        <request index="0" response="000" foes="000" cont="0"/>
        <request index="1" response="000" foes="000" cont="0"/>
        <request index="2" response="000" foes="000" cont="0"/>
    </junction>
    <junction id="237799025" type="dead_end" x="26.72" y="0.00" incLanes="" intLanes="" shape="23.52,0.15 29.92,-0.15"/>
    <junction id="243069478" type="priority" x="33.51" y="136.20" incLanes="901091396#2_0 901091396#2_1 816093391#1_0 816093391#1_1 166149947#1_0 166149947#1_1" intLanes=":243069478_0_0 :243069478_0_1 :243069478_8_0 :243069478_3_0 :243069478_4_0 :243069478_5_0 :243069478_5_1 :243069478_9_0" shape="39.99,145.60 44.64,133.67 43.35,129.05 38.38,124.97 21.84,123.47 18.01,128.59 14.76,129.95 13.74,136.27">
        <request index="0" response="00000000" foes="10010000" cont="0"/>
        <request index="1" response="00000000" foes="10010000" cont="0"/>
        <request index="2" response="01100000" foes="01100000" cont="1"/>
        <request index="3" response="01100000" foes="01100000" cont="0"/>
        <request index="4" response="11100011" foes="11100011" cont="0"/>
        <request index="5" response="00000000" foes="00011100" cont="0"/>
        <request index="6" response="00000000" foes="00011100" cont="0"/>
        <request index="7" response="00000011" foes="00010011" cont="1"/>
    </junction>
    <junction id="243073649" type="priority" x="20.58" y="126.52" incLanes="166149947#0_0 166149947#0_1" intLanes=":243073649_0_0 :243073649_0_1" shape="21.34,131.08 25.18,125.96 23.28,124.54 22.59,124.07 21.87,123.65 20.97,123.19 19.74,122.61 17.08,128.44 17.76,128.98 17.92,129.34 17.97,129.77 17.90,130.25 17.72,130.81 19.57,131.57 20.02,130.90 20.30,130.76 20.61,130.74 20.96,130.85">
        <request index="0" response="00" foes="00" cont="0"/>
        <request index="1" response="00" foes="00" cont="0"/>
    </junction>
    <junction id="2528038340" type="traffic_light" x="41.98" y="125.37" incLanes="816093391#0_0 816093391#0_1" intLanes=":2528038340_0_0 :2528038340_0_1" shape="45.03,126.36 39.16,123.82 44.45,127.42 44.70,127.05 44.78,126.91 44.85,126.77 44.93,126.60">
        <request index="0" response="00" foes="00" cont="0"/>
        <request index="1" response="00" foes="00" cont="0"/>
    </junction>
    <junction id="2528038387" type="traffic_light" x="39.37" y="138.48" incLanes="901091396#1_0 901091396#1_1 -901091396#2_0 -901091396#2_1" intLanes=":2528038387_0_0 :2528038387_0_1 :2528038387_2_0 :2528038387_2_1" shape="37.47,144.60 41.53,132.46 36.92,144.40">
        <request index="0" response="0000" foes="0000" cont="0"/>
        <request index="1" response="0000" foes="0000" cont="0"/>
        <request index="2" response="0000" foes="0000" cont="0"/>
        <request index="3" response="0000" foes="0000" cont="0"/>
    </junction>
    <junction id="2528038392" type="traffic_light" x="45.12" y="125.69" incLanes="108872336#0_0" intLanes=":2528038392_0_0" shape="43.61,126.24 46.68,125.34 43.52,125.84 43.54,125.99 43.55,126.05 43.58,126.16">
        <request index="0" response="0" foes="0" cont="0"/>
    </junction>
    <junction id="6344481093" type="dead_end" x="10.68" y="140.29" incLanes="" intLanes="" shape="11.11,141.19 10.25,139.39"/>
    <junction id="6344481094" type="dead_end" x="16.19" y="137.69" incLanes="677591390#1_0 677591391_0" intLanes="" shape="17.77,136.21 15.89,135.55 15.46,136.40 15.17,136.77 14.84,137.09 14.46,137.36 14.03,137.60 14.88,139.41 16.14,138.61 16.66,138.11 17.11,137.55 17.48,136.91"/>
    <junction id="6837507904" type="priority" x="86.52" y="156.39" incLanes="-901091396#0_0 -901091396#0_1" intLanes=":6837507904_0_0" shape="86.52,156.39 88.88,150.44 86.52,156.39">
        <request index="0" response="0" foes="0" cont="0"/>
    </junction>

    <junction id=":1248152806_8_0" type="internal" x="48.36" y="142.09" incLanes=":1248152806_2_0 -901091396#1_0 -901091396#1_1 108872336#1_0" intLanes=":1248152806_3_0 :1248152806_5_0 :1248152806_5_1"/>