<?xml version="1.0" encoding="UTF-8"?>

<!-- generated on 2024-09-03 01:36:59 by Eclipse SUMO netconvert Version 1.20.0
<configuration xmlns:xsi="http://www.w3.org/2001/XMLSchema-instance" xsi:noNamespaceSchemaLocation="http://sumo.dlr.de/xsd/netconvertConfiguration.xsd">

    <input>
        <osm-files value="train_files/roundabout/easy/osm_files/map(65).osm"/>
    </input>

    <output>
        <output-file value="train_files/roundabout/easy/outputs/map(65)_dict/map(65)/map(65).net.xml"/>
    </output>

    <projection>
        <proj.utm value="true"/>
    </projection>

    <building_defaults>
        <default.junctions.keep-clear value="false"/>
    </building_defaults>

</configuration>
-->

<net version="1.20" junctionCornerDetail="5" limitTurnSpeed="5.50" xmlns:xsi="http://www.w3.org/2001/XMLSchema-instance" xsi:noNamespaceSchemaLocation="http://sumo.dlr.de/xsd/net_file.xsd">

    <location netOffset="-433699.65,-5415327.54" convBoundary="0.00,0.00,831.01,1274.17" origBoundary="2.095441,48.887365,2.106728,48.898867" projParameter="+proj=utm +zone=31 +ellps=WGS84 +datum=WGS84 +units=m +no_defs"/>

    <type id="highway.cycleway" priority="1" numLanes="1" speed="5.56" allow="bicycle" oneway="0" width="2.00"/>
    <type id="highway.footway" priority="1" numLanes="1" speed="2.78" allow="pedestrian" oneway="1" width="2.00"/>
    <type id="highway.path" priority="1" numLanes="1" speed="5.56" allow="pedestrian bicycle" oneway="0" width="2.00"/>
    <type id="highway.secondary" priority="11" numLanes="1" speed="27.78" disallow="tram rail_urban rail rail_electric rail_fast ship container cable_car subway aircraft wheelchair scooter drone" oneway="0"/>

    <edge id=":10186417489_0" function="internal">
        <lane id=":10186417489_0_0" index="0" disallow="tram rail_urban rail rail_electric rail_fast ship container cable_car subway aircraft wheelchair scooter drone" speed="12.50" length="0.10" shape="228.93,916.49 228.93,916.49"/>
        <lane id=":10186417489_0_1" index="1" disallow="tram rail_urban rail rail_electric rail_fast ship container cable_car subway aircraft wheelchair scooter drone" speed="12.50" length="0.10" shape="225.73,916.45 225.73,916.45"/>
    </edge>
    <edge id=":10186417489_2" function="internal">
        <lane id=":10186417489_2_0" index="0" disallow="tram rail_urban rail rail_electric rail_fast ship container cable_car subway aircraft wheelchair scooter drone" speed="12.50" length="0.10" shape="222.53,916.41 222.53,916.41"/>
    </edge>
    <edge id=":10186417490_0" function="internal">
        <lane id=":10186417490_0_0" index="0" disallow="tram rail_urban rail rail_electric rail_fast ship container cable_car subway aircraft wheelchair scooter drone" speed="12.50" length="0.30" shape="228.61,931.79 228.60,932.09"/>
        <lane id=":10186417490_0_1" index="1" disallow="tram rail_urban rail rail_electric rail_fast ship container cable_car subway aircraft wheelchair scooter drone" speed="12.50" length="0.30" shape="225.41,931.71 225.40,932.01"/>
    </edge>
    <edge id=":10186417490_2" function="internal">
        <lane id=":10186417490_2_0" index="0" disallow="tram rail_urban rail rail_electric rail_fast ship container cable_car subway aircraft wheelchair scooter drone" speed="12.50" length="0.30" shape="222.20,931.93 222.21,931.63"/>
    </edge>
    <edge id=":11283459122_0" function="internal">
        <lane id=":11283459122_0_0" index="0" disallow="tram rail_urban rail rail_electric rail_fast ship container cable_car subway aircraft wheelchair scooter drone" speed="12.50" length="5.01" shape="213.66,819.93 210.10,816.43"/>
        <lane id=":11283459122_0_1" index="1" disallow="tram rail_urban rail rail_electric rail_fast ship container cable_car subway aircraft wheelchair scooter drone" speed="12.50" length="5.01" shape="215.92,817.62 214.68,816.84 213.97,816.11 213.34,815.27 212.35,814.15"/>
        <lane id=":11283459122_0_2" index="2" disallow="tram rail_urban rail rail_electric rail_fast ship container cable_car subway aircraft wheelchair scooter drone" speed="12.50" length="5.01" shape="218.25,815.23 217.00,814.46 216.26,813.77 215.60,812.97 214.59,811.87"/>
    </edge>
    <edge id=":11283459130_0" function="internal">
        <lane id=":11283459130_0_0" index="0" allow="pedestrian bicycle" speed="5.56" length="5.27" width="2.00" shape="205.90,829.17 202.16,825.46"/>
    </edge>
    <edge id=":11283459130_1" function="internal">
        <lane id=":11283459130_1_0" index="0" allow="pedestrian bicycle" speed="2.89" length="2.43" width="2.00" shape="205.90,829.17 205.71,828.29 205.87,827.75 206.40,827.56 206.80,827.63"/>
    </edge>
    <edge id=":11283459130_4" function="internal">
        <lane id=":11283459130_4_0" index="0" allow="pedestrian bicycle" speed="2.89" length="0.49" width="2.00" shape="206.80,827.63 207.29,827.72"/>
    </edge>
    <edge id=":11283459130_2" function="internal">
        <lane id=":11283459130_2_0" index="0" allow="pedestrian bicycle" speed="5.56" length="5.28" width="2.00" shape="203.54,824.00 207.29,827.72"/>
    </edge>
    <edge id=":11283459130_3" function="internal">
        <lane id=":11283459130_3_0" index="0" allow="pedestrian bicycle" speed="2.89" length="2.44" width="2.00" shape="203.54,824.00 203.74,824.88 203.58,825.42 203.05,825.61 202.64,825.54"/>
    </edge>
    <edge id=":11283459130_5" function="internal">
        <lane id=":11283459130_5_0" index="0" allow="pedestrian bicycle" speed="2.89" length="0.48" width="2.00" shape="202.64,825.54 202.16,825.46"/>
    </edge>
    <edge id=":11517191953_0" function="internal">
        <lane id=":11517191953_0_0" index="0" allow="pedestrian bicycle" speed="5.56" length="4.63" width="2.00" shape="237.50,835.99 236.32,836.67 235.44,837.01 234.53,837.28 233.23,837.72"/>
    </edge>
    <edge id=":12055456073_0" function="internal">
        <lane id=":12055456073_0_0" index="0" allow="bicycle" speed="5.56" length="5.23" width="1.30" shape="266.67,798.21 265.16,798.55 264.12,798.80 263.12,799.18 261.76,799.90"/>
    </edge>
    <edge id=":12055456073_1" function="internal">
        <lane id=":12055456073_1_0" index="0" allow="bicycle" speed="4.59" length="4.73" width="1.30" shape="266.67,798.21 265.58,798.51 264.11,798.85 262.79,798.98 262.13,798.59"/>
    </edge>
    <edge id=":12055456073_2" function="internal">
        <lane id=":12055456073_2_0" index="0" allow="bicycle" speed="4.46" length="3.08" width="1.30" shape="264.09,798.19 263.93,798.80 263.33,799.23 262.52,799.56 261.76,799.90"/>
    </edge>
    <edge id=":12055456073_3" function="internal">
        <lane id=":12055456073_3_0" index="0" allow="bicycle" speed="2.89" length="2.92" width="2.00" shape="264.09,798.19 263.75,799.03 263.31,799.37 262.77,799.22 262.13,798.59"/>
    </edge>
    <edge id=":12055633398_0" function="internal">
        <lane id=":12055633398_0_0" index="0" allow="bicycle" speed="4.82" length="4.67" width="1.30" shape="260.78,791.88 261.22,791.26 262.46,790.84 263.92,790.56 265.02,790.36"/>
    </edge>
    <edge id=":12055633398_1" function="internal">
        <lane id=":12055633398_1_0" index="0" allow="bicycle" speed="2.89" length="2.92" width="2.00" shape="260.78,791.88 261.12,791.04 261.56,790.70 262.10,790.84 262.74,791.48"/>
    </edge>
    <edge id=":12055633398_2" function="internal">
        <lane id=":12055633398_2_0" index="0" allow="bicycle" speed="5.56" length="3.10" width="1.30" shape="262.16,791.33 263.03,791.36 263.60,791.10 264.17,790.71 265.02,790.36"/>
    </edge>
    <edge id=":12055633398_3" function="internal">
        <lane id=":12055633398_3_0" index="0" allow="bicycle" speed="5.56" length="0.66" width="1.30" shape="262.16,791.33 262.37,791.34 262.54,791.32 262.66,791.34 262.74,791.48"/>
    </edge>
    <edge id=":12055663075_0" function="internal">
        <lane id=":12055663075_0_0" index="0" allow="bicycle" speed="2.90" length="1.40" width="2.00" shape="262.09,798.39 261.96,797.98 261.76,797.71 261.49,797.59 261.15,797.61"/>
    </edge>
    <edge id=":12055663075_1" function="internal">
        <lane id=":12055663075_1_0" index="0" allow="bicycle" speed="5.56" length="6.45" width="2.00" shape="262.09,798.39 260.82,792.07"/>
    </edge>
    <edge id=":12055663075_2" function="internal">
        <lane id=":12055663075_2_0" index="0" allow="bicycle" speed="6.19" length="8.13" width="2.00" shape="262.09,798.39 261.90,796.01 262.40,794.15 263.58,792.81 265.44,791.99"/>
    </edge>
    <edge id=":12055663075_3" function="internal">
        <lane id=":12055663075_3_0" index="0" allow="bicycle" speed="2.89" length="2.92" width="2.00" shape="262.09,798.39 262.44,797.56 262.88,797.21 263.42,797.36 264.05,798.00"/>
    </edge>
    <edge id=":12055663075_4" function="internal">
        <lane id=":12055663075_4_0" index="0" allow="bicycle" speed="4.32" length="3.27" width="2.00" shape="266.53,796.25 265.37,796.62 264.57,797.03 264.13,797.49 264.05,798.00"/>
    </edge>
    <edge id=":12055663075_5" function="internal">
        <lane id=":12055663075_5_0" index="0" disallow="tram rail_urban rail rail_electric rail_fast ship container cable_car subway aircraft wheelchair scooter drone" speed="12.50" length="5.54" shape="266.38,795.67 261.01,797.03"/>
    </edge>
    <edge id=":12055663075_6" function="internal">
        <lane id=":12055663075_6_0" index="0" allow="bicycle" speed="5.77" length="0.85" width="2.00" shape="266.23,795.09 265.39,795.19"/>
    </edge>
    <edge id=":12055663075_14" function="internal">
        <lane id=":12055663075_14_0" index="0" allow="bicycle" speed="5.77" length="6.30" width="2.00" shape="265.39,795.19 264.18,795.34 262.59,794.92 261.47,793.83 260.82,792.07"/>
    </edge>
    <edge id=":12055663075_7" function="internal">
        <lane id=":12055663075_7_0" index="0" allow="bicycle" speed="3.84" length="2.96" width="2.00" shape="262.78,791.68 263.14,792.17 263.82,792.29 264.64,792.18 265.44,791.99"/>
    </edge>
    <edge id=":12055663075_8" function="internal">
        <lane id=":12055663075_8_0" index="0" allow="bicycle" speed="5.56" length="6.45" width="2.00" shape="262.78,791.68 264.05,798.00"/>
    </edge>
    <edge id=":12055663075_9" function="internal">
        <lane id=":12055663075_9_0" index="0" allow="bicycle" speed="5.67" length="6.78" width="2.00" shape="262.78,791.68 263.08,794.02 262.91,795.79 262.26,796.99 261.15,797.61"/>
    </edge>
    <edge id=":12055663075_10" function="internal">
        <lane id=":12055663075_10_0" index="0" allow="bicycle" speed="2.89" length="2.92" width="2.00" shape="262.78,791.68 262.43,792.51 261.99,792.85 261.46,792.71 260.82,792.07"/>
    </edge>
    <edge id=":12055663075_11" function="internal">
        <lane id=":12055663075_11_0" index="0" allow="bicycle" speed="3.40" length="1.65" width="2.00" shape="260.09,793.34 260.49,793.18 260.74,792.91 260.85,792.54 260.82,792.07"/>
    </edge>
    <edge id=":12055663075_12" function="internal">
        <lane id=":12055663075_12_0" index="0" disallow="tram rail_urban rail rail_electric rail_fast ship container cable_car subway aircraft wheelchair scooter drone" speed="12.50" length="5.52" shape="260.24,793.92 265.59,792.57"/>
    </edge>
    <edge id=":12055663075_13" function="internal">
        <lane id=":12055663075_13_0" index="0" allow="bicycle" speed="5.28" length="0.57" width="2.00" shape="260.38,794.51 260.95,794.49"/>
    </edge>
    <edge id=":12055663075_15" function="internal">
        <lane id=":12055663075_15_0" index="0" allow="bicycle" speed="5.28" length="5.20" width="2.00" shape="260.95,794.49 261.67,794.46 262.71,795.03 263.51,796.21 264.05,798.00"/>
    </edge>
    <edge id=":249843953_0" function="internal">
        <lane id=":249843953_0_0" index="0" disallow="tram rail_urban rail rail_electric rail_fast ship container cable_car subway aircraft wheelchair scooter drone" speed="3.65" length="4.67" shape="123.34,-0.91 124.68,-1.44 125.56,-1.32 125.99,-0.53 125.97,0.91"/>
    </edge>
    <edge id=":249846106_0" function="internal">
        <lane id=":249846106_0_0" index="0" disallow="tram rail_urban rail rail_electric rail_fast ship container cable_car subway aircraft wheelchair scooter drone" speed="7.16" length="7.86" shape="236.65,777.24 236.38,779.08 236.74,780.83 237.73,782.51 239.33,784.12"/>
    </edge>
    <edge id=":249846106_1" function="internal">
        <lane id=":249846106_1_0" index="0" disallow="tram rail_urban rail rail_electric rail_fast ship container cable_car subway aircraft wheelchair scooter drone" speed="6.68" length="8.09" shape="227.48,780.41 229.62,780.32 231.36,779.60 232.68,778.26 233.60,776.28"/>
    </edge>
    <edge id=":249846106_2" function="internal">
        <lane id=":249846106_2_0" index="0" disallow="tram rail_urban rail rail_electric rail_fast ship container cable_car subway aircraft wheelchair scooter drone" speed="12.50" length="11.52" shape="227.48,780.41 231.26,780.69 233.92,781.01 236.32,781.97 239.33,784.12"/>
        <lane id=":249846106_2_1" index="1" disallow="tram rail_urban rail rail_electric rail_fast ship container cable_car subway aircraft wheelchair scooter drone" speed="12.50" length="11.52" shape="227.17,783.59 230.58,783.86 232.97,784.19 235.13,785.08 237.84,787.04"/>
        <lane id=":249846106_2_2" index="2" disallow="tram rail_urban rail rail_electric rail_fast ship container cable_car subway aircraft wheelchair scooter drone" speed="12.50" length="11.52" shape="226.86,786.78 229.90,787.03 232.02,787.36 233.94,788.19 236.35,789.95"/>
    </edge>
    <edge id=":249846108_0" function="internal">
        <lane id=":249846108_0_0" index="0" disallow="tram rail_urban rail rail_electric rail_fast ship container cable_car subway aircraft wheelchair scooter drone" speed="8.37" length="9.01" shape="254.42,798.87 252.57,799.71 251.03,801.10 249.80,803.02 248.87,805.48"/>
    </edge>
    <edge id=":249846108_1" function="internal">
        <lane id=":249846108_1_0" index="0" disallow="tram rail_urban rail rail_electric rail_fast ship container cable_car subway aircraft wheelchair scooter drone" speed="7.17" length="8.45" shape="246.58,792.13 248.23,794.13 249.95,795.41 251.73,795.96 253.56,795.79"/>
    </edge>
    <edge id=":249846108_2" function="internal">
        <lane id=":249846108_2_0" index="0" disallow="tram rail_urban rail rail_electric rail_fast ship container cable_car subway aircraft wheelchair scooter drone" speed="11.39" length="12.96" shape="246.58,792.13 248.33,795.31 249.30,798.59 249.48,801.98 248.87,805.48"/>
        <lane id=":249846108_2_1" index="1" disallow="tram rail_urban rail rail_electric rail_fast ship container cable_car subway aircraft wheelchair scooter drone" speed="10.97" length="12.96" shape="243.39,793.14 245.02,796.09 245.93,799.14 246.10,802.27 245.54,805.49"/>
        <lane id=":249846108_2_2" index="2" disallow="tram rail_urban rail rail_electric rail_fast ship container cable_car subway aircraft wheelchair scooter drone" speed="10.54" length="12.96" shape="240.20,794.15 241.71,796.88 242.55,799.68 242.72,802.56 242.22,805.50"/>
    </edge>
    <edge id=":307440568_0" function="internal">
        <lane id=":307440568_0_0" index="0" disallow="tram rail_urban rail rail_electric rail_fast ship container cable_car subway aircraft wheelchair scooter drone" speed="3.65" length="4.67" shape="225.10,944.13 224.27,945.31 223.46,945.69 222.67,945.27 221.90,944.05"/>
    </edge>
    <edge id=":318762603_0" function="internal">
        <lane id=":318762603_0_0" index="0" disallow="tram rail_urban rail rail_electric rail_fast ship container cable_car subway aircraft wheelchair scooter drone" speed="12.50" length="9.51" shape="206.82,811.10 205.50,808.47 204.90,806.51 204.83,804.44 205.09,801.48"/>
        <lane id=":318762603_0_1" index="1" disallow="tram rail_urban rail rail_electric rail_fast ship container cable_car subway aircraft wheelchair scooter drone" speed="12.50" length="9.51" shape="210.06,810.37 208.79,807.88 208.20,806.02 208.10,804.07 208.32,801.27"/>
        <lane id=":318762603_0_2" index="2" disallow="tram rail_urban rail rail_electric rail_fast ship container cable_car subway aircraft wheelchair scooter drone" speed="12.37" length="9.51" shape="213.30,809.64 212.09,807.29 211.49,805.54 211.36,803.70 211.56,801.06"/>
    </edge>
    <edge id=":318762603_3" function="internal">
        <lane id=":318762603_3_0" index="0" disallow="tram rail_urban rail rail_electric rail_fast ship container cable_car subway aircraft wheelchair scooter drone" speed="6.99" length="8.08" shape="200.43,807.36 202.29,806.66 203.68,805.45 204.62,803.72 205.09,801.48"/>
    </edge>
    <edge id=":318763349_0" function="internal">
        <lane id=":318763349_0_0" index="0" disallow="tram rail_urban rail rail_electric rail_fast ship container cable_car subway aircraft wheelchair scooter drone" speed="12.50" length="0.29" shape="281.45,791.81 281.17,791.88"/>
    </edge>
    <edge id=":318763349_1" function="internal">
        <lane id=":318763349_1_0" index="0" disallow="tram rail_urban rail rail_electric rail_fast ship container cable_car subway aircraft wheelchair scooter drone" speed="12.50" length="0.31" shape="280.38,788.78 280.68,788.71"/>
    </edge>
    <edge id=":535814017_0" function="internal">
        <lane id=":535814017_0_0" index="0" disallow="tram rail_urban rail rail_electric rail_fast ship container cable_car subway aircraft wheelchair scooter drone" speed="12.50" length="5.17" shape="230.01,834.94 229.91,840.09"/>
        <lane id=":535814017_0_1" index="1" disallow="tram rail_urban rail rail_electric rail_fast ship container cable_car subway aircraft wheelchair scooter drone" speed="12.50" length="5.17" shape="226.81,834.86 226.71,840.05"/>
    </edge>
    <edge id=":535814017_2" function="internal">
        <lane id=":535814017_2_0" index="0" disallow="tram rail_urban rail rail_electric rail_fast ship container cable_car subway aircraft wheelchair scooter drone" speed="12.50" length="5.24" shape="223.51,840.01 223.61,834.77"/>
    </edge>
    <edge id=":535814116_0" function="internal">
        <lane id=":535814116_0_0" index="0" allow="pedestrian bicycle" speed="5.56" length="6.11" width="2.00" shape="193.62,812.81 192.68,811.26 192.06,810.13 191.76,808.94 191.76,807.16"/>
    </edge>
    <edge id=":535814116_1" function="internal">
        <lane id=":535814116_1_0" index="0" allow="pedestrian bicycle" speed="5.10" length="6.82" width="2.00" shape="193.62,812.81 193.05,811.19 193.37,809.88 194.56,808.87 196.64,808.18"/>
    </edge>
    <edge id=":535814116_2" function="internal">
        <lane id=":535814116_2_0" index="0" allow="pedestrian bicycle" speed="2.89" length="2.92" width="2.00" shape="193.62,812.81 193.69,811.91 194.00,811.45 194.56,811.42 195.36,811.83"/>
    </edge>
    <edge id=":535814116_3" function="internal">
        <lane id=":535814116_3_0" index="0" allow="pedestrian bicycle" speed="3.86" length="3.51" width="2.00" shape="193.75,807.30 193.89,807.92 194.42,808.28 195.34,808.36 196.64,808.18"/>
    </edge>
    <edge id=":535814116_4" function="internal">
        <lane id=":535814116_4_0" index="0" allow="pedestrian bicycle" speed="5.56" length="4.94" width="2.00" shape="193.75,807.30 193.77,808.72 194.05,809.68 194.59,810.57 195.36,811.83"/>
    </edge>
    <edge id=":535814116_5" function="internal">
        <lane id=":535814116_5_0" index="0" allow="pedestrian bicycle" speed="2.89" length="2.92" width="2.00" shape="193.75,807.30 193.20,808.01 192.69,808.23 192.20,807.95 191.76,807.16"/>
    </edge>
    <edge id=":535814116_6" function="internal">
        <lane id=":535814116_6_0" index="0" allow="pedestrian bicycle" speed="4.87" length="3.62" width="2.00" shape="189.58,809.69 190.48,809.37 191.14,808.84 191.57,808.11 191.76,807.16"/>
    </edge>
    <edge id=":535814116_7" function="internal">
        <lane id=":535814116_7_0" index="0" disallow="tram rail_urban rail rail_electric rail_fast ship container cable_car subway aircraft wheelchair scooter drone" speed="12.50" length="7.22" shape="189.58,809.69 196.64,808.18"/>
    </edge>
    <edge id=":535814116_8" function="internal">
        <lane id=":535814116_8_0" index="0" allow="pedestrian bicycle" speed="6.39" length="6.64" width="2.00" shape="189.58,809.69 191.47,809.50 193.06,809.79 194.36,810.57 195.36,811.83"/>
    </edge>
    <edge id=":535852927_0" function="internal">
        <lane id=":535852927_0_0" index="0" disallow="tram rail_urban rail rail_electric rail_fast ship container cable_car subway aircraft wheelchair scooter drone" speed="12.50" length="3.44" shape="260.81,797.08 257.50,797.99"/>
    </edge>
    <edge id=":535852927_1" function="internal">
        <lane id=":535852927_1_0" index="0" disallow="tram rail_urban rail rail_electric rail_fast ship container cable_car subway aircraft wheelchair scooter drone" speed="12.50" length="3.53" shape="256.63,794.91 260.04,793.97"/>
    </edge>
    <edge id=":535853480_0" function="internal">
        <lane id=":535853480_0_0" index="0" disallow="tram rail_urban rail rail_electric rail_fast ship container cable_car subway aircraft wheelchair scooter drone" speed="13.89" length="5.10" shape="239.51,767.75 238.06,772.64"/>
    </edge>
    <edge id=":535853480_1" function="internal">
        <lane id=":535853480_1_0" index="0" disallow="tram rail_urban rail rail_electric rail_fast ship container cable_car subway aircraft wheelchair scooter drone" speed="13.89" length="5.03" shape="235.01,771.70 236.44,766.87"/>
    </edge>
    <edge id=":5562229615_0" function="internal">
        <lane id=":5562229615_0_0" index="0" allow="pedestrian bicycle" speed="3.02" length="2.97" width="2.00" shape="225.66,767.03 226.57,766.90 227.10,767.11 227.25,767.65 227.03,768.54"/>
    </edge>
    <edge id=":5562229620_0" function="internal">
        <lane id=":5562229620_0_0" index="0" allow="pedestrian bicycle" speed="2.89" length="2.92" width="2.00" shape="218.44,835.41 218.76,836.25 218.67,836.81 218.18,837.07 217.28,837.04"/>
    </edge>
    <edge id=":5562229620_1" function="internal">
        <lane id=":5562229620_1_0" index="0" allow="pedestrian bicycle" speed="5.56" length="3.75" width="2.00" shape="218.86,840.27 218.79,839.30 218.51,838.44 218.00,837.69 217.28,837.04"/>
    </edge>
    <edge id=":7737057943_0" function="internal">
        <lane id=":7737057943_0_0" index="0" disallow="tram rail_urban rail rail_electric rail_fast ship container cable_car subway aircraft wheelchair scooter drone" speed="12.50" length="0.30" shape="188.75,809.87 189.04,809.81"/>
    </edge>
    <edge id=":87333305_0" function="internal">
        <lane id=":87333305_0_0" index="0" disallow="tram rail_urban rail rail_electric rail_fast ship container cable_car subway aircraft wheelchair scooter drone" speed="7.64" length="8.59" shape="235.05,822.67 232.96,823.84 231.45,825.30 230.52,827.07 230.16,829.13"/>
        <lane id=":87333305_0_1" index="1" disallow="tram rail_urban rail rail_electric rail_fast ship container cable_car subway aircraft wheelchair scooter drone" speed="8.45" length="10.67" shape="235.05,822.67 231.55,824.35 229.03,825.98 227.50,827.54 226.97,829.04"/>
    </edge>
    <edge id=":87333305_2" function="internal">
        <lane id=":87333305_2_0" index="0" disallow="tram rail_urban rail rail_electric rail_fast ship container cable_car subway aircraft wheelchair scooter drone" speed="12.20" length="15.37" shape="235.05,822.67 230.68,824.13 226.57,824.66 222.74,824.26 219.17,822.93"/>
        <lane id=":87333305_2_1" index="1" disallow="tram rail_urban rail rail_electric rail_fast ship container cable_car subway aircraft wheelchair scooter drone" speed="11.81" length="15.37" shape="234.72,819.33 230.59,820.72 226.73,821.25 223.15,820.90 219.85,819.68"/>
        <lane id=":87333305_2_2" index="2" disallow="tram rail_urban rail rail_electric rail_fast ship container cable_car subway aircraft wheelchair scooter drone" speed="11.41" length="15.37" shape="234.39,815.99 230.49,817.31 226.89,817.83 223.57,817.53 220.54,816.43"/>
    </edge>
    <edge id=":87333305_5" function="internal">
        <lane id=":87333305_5_0" index="0" disallow="tram rail_urban rail rail_electric rail_fast ship container cable_car subway aircraft wheelchair scooter drone" speed="7.47" length="7.99" shape="223.77,828.95 223.52,827.24 222.67,825.67 221.22,824.23 219.17,822.93"/>
    </edge>
    <edge id=":9425190626_0" function="internal">
        <lane id=":9425190626_0_0" index="0" allow="pedestrian bicycle" speed="2.89" length="2.92" width="2.00" shape="471.52,1138.84 471.03,1139.60 470.53,1139.86 470.03,1139.62 469.52,1138.87"/>
    </edge>
    <edge id=":9425190651_0" function="internal">
        <lane id=":9425190651_0_0" index="0" allow="pedestrian bicycle" speed="4.55" length="4.51" width="2.00" shape="263.97,800.95 262.66,801.35 261.83,802.00 261.45,802.88 261.54,804.01"/>
    </edge>
    <edge id=":9425190651_1" function="internal">
        <lane id=":9425190651_1_0" index="0" allow="pedestrian bicycle" speed="2.93" length="3.05" width="2.00" shape="263.97,800.95 263.03,800.85 262.56,800.51 262.55,799.92 263.01,799.10"/>
    </edge>
    <edge id=":9425190651_2" function="internal">
        <lane id=":9425190651_2_0" index="0" allow="bicycle" speed="2.41" length="1.85" width="1.30" shape="261.59,800.00 262.94,798.75"/>
    </edge>
    <edge id=":9425190651_3" function="internal">
        <lane id=":9425190651_3_0" index="0" allow="bicycle" speed="4.83" length="4.08" width="1.30" shape="261.59,800.00 261.23,800.69 261.32,801.78 261.61,802.97 261.88,803.92"/>
    </edge>
    <edge id=":9425190652_0" function="internal">
        <lane id=":9425190652_0_0" index="0" allow="bicycle" speed="3.46" length="4.09" width="1.30" shape="265.74,790.12 264.61,790.38 263.12,790.73 262.01,791.06 261.97,791.29"/>
    </edge>
    <edge id=":9425190652_1" function="internal">
        <lane id=":9425190652_1_0" index="0" allow="pedestrian bicycle" speed="2.89" length="2.92" width="2.00" shape="265.66,789.78 264.81,789.48 264.44,789.06 264.56,788.51 265.16,787.84"/>
    </edge>
    <edge id=":9425602405_0" function="internal">
        <lane id=":9425602405_0_0" index="0" allow="pedestrian bicycle" speed="5.56" length="1.96" width="2.00" shape="193.89,805.14 193.76,807.10"/>
    </edge>
    <edge id=":9425602405_1" function="internal">
        <lane id=":9425602405_1_0" index="0" allow="pedestrian bicycle" speed="5.56" length="1.87" width="2.00" shape="191.77,806.96 191.89,805.09"/>
    </edge>
    <edge id=":9425602406_0" function="internal">
        <lane id=":9425602406_0_0" index="0" allow="pedestrian bicycle" speed="5.56" length="0.10" width="2.00" shape="193.63,812.83 193.67,812.90"/>
    </edge>
    <edge id=":9425602406_1" function="internal">
        <lane id=":9425602406_1_0" index="0" allow="pedestrian bicycle" speed="5.56" length="0.10" width="2.00" shape="195.41,811.91 195.45,811.99"/>
    </edge>
    <edge id=":9426460737_0" function="internal">
        <lane id=":9426460737_0_0" index="0" allow="pedestrian bicycle" speed="2.89" length="2.92" width="2.00" shape="478.93,1266.87 478.51,1267.67 478.03,1267.96 477.51,1267.76 476.94,1267.07"/>
    </edge>

    <edge id="-1021914728" from="9425190626" to="9425190652" priority="1" type="highway.path" shape="470.52,1138.86 470.19,1118.25 469.38,1088.58 469.27,1080.64 468.21,1055.35 466.44,1033.39 464.79,1014.33 464.01,1009.11 463.55,1005.72 461.46,997.74 457.85,985.17 455.99,979.27 450.95,963.52 437.20,924.96 421.74,881.99 410.49,852.35 401.04,825.07 392.09,801.40 386.78,790.85 380.45,784.72 371.69,777.20 360.39,773.14 352.13,770.39 340.22,767.83 335.93,767.20 330.60,766.61 325.04,773.61 258.43,790.59">
        <lane id="-1021914728_0" index="0" allow="pedestrian bicycle" speed="5.56" length="493.28" width="2.00" shape="469.52,1138.87 469.19,1118.27 468.38,1088.60 468.27,1080.67 467.21,1055.41 465.44,1033.47 463.79,1014.45 463.02,1009.26 462.56,1005.91 460.49,998.00 456.89,985.46 455.04,979.57 450.00,963.84 436.26,925.30 420.80,882.34 409.55,852.69 400.10,825.41 391.18,801.80 385.96,791.45 379.78,785.46 371.17,778.08 360.06,774.09 351.86,771.36 340.04,768.82 335.80,768.19 331.04,767.67 325.61,774.49 265.66,789.78"/>
    </edge>
    <edge id="-1021914730" from="9425190651" to="9426460737" priority="1" type="highway.path" shape="260.65,800.54 270.04,798.84 316.52,787.03 339.50,782.13 352.34,781.38 366.86,785.84 374.14,791.04 380.14,799.83 390.61,825.92 407.01,871.17 422.65,917.83 431.67,942.81 439.88,966.58 448.73,992.68 452.96,1010.81 454.63,1019.90 455.12,1024.03 456.18,1036.11 457.26,1051.83 457.84,1071.94 458.24,1101.96 459.15,1130.43 459.46,1139.70 460.05,1160.12 460.86,1181.92 461.66,1206.81 462.41,1224.73 463.59,1236.95 470.70,1251.59 477.27,1260.08 477.94,1266.97">
        <lane id="-1021914730_0" index="0" allow="pedestrian bicycle" speed="5.56" length="611.55" width="2.00" shape="263.01,799.10 269.83,797.86 316.29,786.05 339.36,781.14 352.46,780.37 367.31,784.93 374.87,790.32 381.03,799.35 391.54,825.56 407.95,870.84 423.59,917.50 432.62,942.48 440.82,966.26 449.69,992.41 453.94,1010.61 455.62,1019.75 456.12,1023.93 457.18,1036.03 458.26,1051.78 458.84,1071.91 459.24,1101.94 460.15,1130.40 460.46,1139.67 461.05,1160.08 461.86,1181.89 462.66,1206.78 463.41,1224.66 464.57,1236.68 471.56,1251.06 478.24,1259.70 478.93,1266.87"/>
    </edge>
    <edge id="-1021959842" from="9425602405" to="5562229615" priority="1" type="highway.path" shape="192.89,805.22 192.97,801.78 194.43,795.87 199.77,786.00 210.36,772.27 215.93,768.95 224.90,768.48 226.31,767.84 227.38,766.87">
        <lane id="-1021959842_0" index="0" allow="pedestrian bicycle" speed="5.56" length="55.88" width="2.00" shape="191.89,805.09 191.97,801.64 193.49,795.50 198.93,785.45 209.69,771.51 215.63,767.97 224.66,767.49 225.66,767.03"/>
    </edge>