<?xml version="1.0" encoding="UTF-8"?>

<!-- generated on 2024-09-03 01:38:46 by Eclipse SUMO netconvert Version 1.20.0
<configuration xmlns:xsi="http://www.w3.org/2001/XMLSchema-instance" xsi:noNamespaceSchemaLocation="http://sumo.dlr.de/xsd/netconvertConfiguration.xsd">

    <input>
        <osm-files value="train_files/intersection/hard/osm_files/map(73).osm"/>
    </input>

    <output>
        <output-file value="train_files/intersection/hard/outputs/map(73)_dict/map(73)/map(73).net.xml"/>
    </output>

    <projection>
        <proj.utm value="true"/>
    </projection>

    <building_defaults>
        <default.junctions.keep-clear value="false"/>
    </building_defaults>

</configuration>
-->

<net version="1.20" junctionCornerDetail="5" limitTurnSpeed="5.50" xmlns:xsi="http://www.w3.org/2001/XMLSchema-instance" xsi:noNamespaceSchemaLocation="http://sumo.dlr.de/xsd/net_file.xsd">

    <location netOffset="-375576.09,-5398751.17" convBoundary="0.00,0.00,4003.83,2569.10" origBoundary="1.307225,48.730023,1.362364,48.752457" projParameter="+proj=utm +zone=31 +ellps=WGS84 +datum=WGS84 +units=m +no_defs"/>

    <type id="highway.cycleway" priority="1" numLanes="1" speed="5.56" allow="bicycle" oneway="0" width="2.00"/>
    <type id="highway.secondary" priority="11" numLanes="1" speed="27.78" disallow="tram rail_urban rail rail_electric rail_fast ship container cable_car subway aircraft wheelchair scooter drone" oneway="0"/>
    <type id="highway.tertiary" priority="10" numLanes="1" speed="22.22" disallow="tram rail_urban rail rail_electric rail_fast ship container cable_car subway aircraft wheelchair scooter drone" oneway="0"/>
    <type id="railway.rail" priority="20" numLanes="1" speed="44.44" allow="rail" oneway="1"/>

    <edge id=":11338878334_0" function="internal">
        <lane id=":11338878334_0_0" index="0" disallow="tram rail_urban rail rail_electric rail_fast ship container cable_car subway aircraft wheelchair scooter drone" speed="10.84" length="5.98" shape="2895.37,391.49 2893.98,392.61 2893.02,393.42 2892.31,394.40 2891.67,396.01"/>
    </edge>
    <edge id=":11338878334_1" function="internal">
        <lane id=":11338878334_1_0" index="0" disallow="tram rail_urban rail rail_electric rail_fast ship container cable_car subway aircraft wheelchair scooter drone" speed="4.68" length="2.82" shape="2895.37,391.49 2893.11,393.17"/>
    </edge>
    <edge id=":11338878334_4" function="internal">
        <lane id=":11338878334_4_0" index="0" disallow="tram rail_urban rail rail_electric rail_fast ship container cable_car subway aircraft wheelchair scooter drone" speed="4.68" length="4.61" shape="2893.11,393.17 2891.75,393.58 2891.29,392.70 2891.73,390.54"/>
    </edge>
    <edge id=":11338878334_2" function="internal">
        <lane id=":11338878334_2_0" index="0" disallow="tram rail_urban rail rail_electric rail_fast ship container cable_car subway aircraft wheelchair scooter drone" speed="13.89" length="5.55" shape="2888.62,395.05 2889.34,393.61 2890.18,392.80 2891.01,391.98 2891.73,390.54"/>
    </edge>
    <edge id=":11338878334_3" function="internal">
        <lane id=":11338878334_3_0" index="0" disallow="tram rail_urban rail rail_electric rail_fast ship container cable_car subway aircraft wheelchair scooter drone" speed="3.65" length="1.44" shape="2888.62,395.05 2889.75,394.14"/>
    </edge>
    <edge id=":11338878334_5" function="internal">
        <lane id=":11338878334_5_0" index="0" disallow="tram rail_urban rail rail_electric rail_fast ship container cable_car subway aircraft wheelchair scooter drone" speed="3.65" length="3.23" shape="2889.75,394.14 2890.63,394.01 2891.28,394.63 2891.67,396.01"/>
    </edge>
    <edge id=":11338878335_0" function="internal">
        <lane id=":11338878335_0_0" index="0" disallow="tram rail_urban rail rail_electric rail_fast ship container cable_car subway aircraft wheelchair scooter drone" speed="18.05" length="14.60" shape="2925.64,377.87 2921.96,377.86 2918.39,378.34 2914.89,379.27 2911.44,380.59"/>
    </edge>
    <edge id=":11338878335_1" function="internal">
        <lane id=":11338878335_1_0" index="0" disallow="tram rail_urban rail rail_electric rail_fast ship container cable_car subway aircraft wheelchair scooter drone" speed="13.89" length="14.89" shape="2925.64,377.87 2910.79,376.82"/>
    </edge>
    <edge id=":11338878335_2" function="internal">
        <lane id=":11338878335_2_0" index="0" allow="bicycle" speed="6.17" length="0.64" width="2.00" shape="2925.69,377.28 2925.06,377.12"/>
    </edge>
    <edge id=":11338878335_3" function="internal">
        <lane id=":11338878335_3_0" index="0" disallow="tram rail_urban rail rail_electric rail_fast ship container cable_car subway aircraft wheelchair scooter drone" speed="3.65" length="1.44" shape="2925.64,377.87 2924.51,376.99"/>
    </edge>
    <edge id=":11338878335_12" function="internal">
        <lane id=":11338878335_12_0" index="0" allow="bicycle" speed="6.17" length="7.96" width="2.00" shape="2925.06,377.12 2923.60,376.75 2922.26,375.52 2921.66,373.60 2921.81,370.98"/>
    </edge>
    <edge id=":11338878335_13" function="internal">
        <lane id=":11338878335_13_0" index="0" disallow="tram rail_urban rail rail_electric rail_fast ship container cable_car subway aircraft wheelchair scooter drone" speed="3.65" length="3.23" shape="2924.51,376.99 2924.17,376.16 2924.62,375.39 2925.88,374.68"/>
    </edge>
    <edge id=":11338878335_4" function="internal">
        <lane id=":11338878335_4_0" index="0" allow="bicycle" speed="4.32" length="4.08" width="2.00" shape="2923.78,371.33 2923.74,372.46 2924.09,373.30 2924.82,373.84 2925.93,374.08"/>
    </edge>
    <edge id=":11338878335_5" function="internal">
        <lane id=":11338878335_5_0" index="0" allow="bicycle" speed="11.17" length="16.05" width="2.00" shape="2923.78,371.33 2922.70,373.78 2920.33,376.23 2916.65,378.68 2911.68,381.14"/>
    </edge>
    <edge id=":11338878335_6" function="internal">
        <lane id=":11338878335_6_0" index="0" allow="bicycle" speed="8.66" length="15.82" width="2.00" shape="2923.78,371.33 2922.51,374.30 2919.92,376.31 2915.99,377.35 2910.75,377.42"/>
    </edge>
    <edge id=":11338878335_7" function="internal">
        <lane id=":11338878335_7_0" index="0" allow="bicycle" speed="2.89" length="2.92" width="2.00" shape="2923.78,371.33 2923.15,371.98 2922.62,372.14 2922.17,371.81 2921.81,370.98"/>
    </edge>
    <edge id=":11338878335_8" function="internal">
        <lane id=":11338878335_8_0" index="0" allow="bicycle" speed="7.54" length="11.48" width="2.00" shape="2911.05,373.03 2915.58,373.17 2918.88,372.88 2920.95,372.15 2921.81,370.98"/>
    </edge>
    <edge id=":11338878335_9" function="internal">
        <lane id=":11338878335_9_0" index="0" disallow="tram rail_urban rail rail_electric rail_fast ship container cable_car subway aircraft wheelchair scooter drone" speed="13.89" length="14.91" shape="2911.01,373.63 2925.88,374.68"/>
    </edge>
    <edge id=":11338878335_10" function="internal">
        <lane id=":11338878335_10_0" index="0" disallow="tram rail_urban rail rail_electric rail_fast ship container cable_car subway aircraft wheelchair scooter drone" speed="6.43" length="5.67" shape="2911.01,373.63 2916.32,374.43 2916.56,374.62"/>
    </edge>
    <edge id=":11338878335_11" function="internal">
        <lane id=":11338878335_11_0" index="0" disallow="tram rail_urban rail rail_electric rail_fast ship container cable_car subway aircraft wheelchair scooter drone" speed="3.65" length="1.44" shape="2911.01,373.63 2912.15,374.51"/>
    </edge>
    <edge id=":11338878335_14" function="internal">
        <lane id=":11338878335_14_0" index="0" disallow="tram rail_urban rail rail_electric rail_fast ship container cable_car subway aircraft wheelchair scooter drone" speed="6.43" length="10.41" shape="2916.56,374.62 2918.17,375.86 2916.54,377.91 2911.44,380.59"/>
    </edge>
    <edge id=":11338878335_15" function="internal">
        <lane id=":11338878335_15_0" index="0" disallow="tram rail_urban rail rail_electric rail_fast ship container cable_car subway aircraft wheelchair scooter drone" speed="3.65" length="3.23" shape="2912.15,374.51 2912.49,375.34 2912.04,376.11 2910.79,376.82"/>
    </edge>
    <edge id=":11338878336_0" function="internal">
        <lane id=":11338878336_0_0" index="0" disallow="tram rail_urban rail rail_electric rail_fast ship container cable_car subway aircraft wheelchair scooter drone" speed="5.45" length="5.17" shape="2891.06,380.69 2891.10,375.53"/>
    </edge>
    <edge id=":11338878336_1" function="internal">
        <lane id=":11338878336_1_0" index="0" disallow="tram rail_urban rail rail_electric rail_fast ship container cable_car subway aircraft wheelchair scooter drone" speed="6.71" length="11.06" shape="2891.06,380.69 2890.97,377.02 2891.74,374.46 2893.38,372.99 2895.87,372.63"/>
    </edge>
    <edge id=":11338878336_2" function="internal">
        <lane id=":11338878336_2_0" index="0" disallow="tram rail_urban rail rail_electric rail_fast ship container cable_car subway aircraft wheelchair scooter drone" speed="13.89" length="4.57" shape="2895.66,375.82 2891.10,375.53"/>
    </edge>
    <edge id=":11338878336_3" function="internal">
        <lane id=":11338878336_3_0" index="0" disallow="tram rail_urban rail rail_electric rail_fast ship container cable_car subway aircraft wheelchair scooter drone" speed="3.65" length="1.44" shape="2895.66,375.82 2894.51,374.95"/>
    </edge>
    <edge id=":11338878336_6" function="internal">
        <lane id=":11338878336_6_0" index="0" disallow="tram rail_urban rail rail_electric rail_fast ship container cable_car subway aircraft wheelchair scooter drone" speed="3.65" length="3.23" shape="2894.51,374.95 2894.17,374.12 2894.62,373.35 2895.87,372.63"/>
    </edge>
    <edge id=":11338878336_4" function="internal">
        <lane id=":11338878336_4_0" index="0" disallow="tram rail_urban rail rail_electric rail_fast ship container cable_car subway aircraft wheelchair scooter drone" speed="13.89" length="4.57" shape="2891.30,372.33 2895.87,372.63"/>
    </edge>
    <edge id=":11338878336_5" function="internal">
        <lane id=":11338878336_5_0" index="0" disallow="tram rail_urban rail rail_electric rail_fast ship container cable_car subway aircraft wheelchair scooter drone" speed="3.65" length="1.44" shape="2891.30,372.33 2892.45,373.21"/>
    </edge>
    <edge id=":11338878336_7" function="internal">
        <lane id=":11338878336_7_0" index="0" disallow="tram rail_urban rail rail_electric rail_fast ship container cable_car subway aircraft wheelchair scooter drone" speed="3.65" length="3.23" shape="2892.45,373.21 2892.80,374.03 2892.35,374.81 2891.10,375.53"/>
    </edge>
    <edge id=":1827451170_0" function="internal">
        <lane id=":1827451170_0_0" index="0" disallow="tram rail_urban rail rail_electric rail_fast ship container cable_car subway aircraft wheelchair scooter drone" speed="13.89" length="4.97" shape="2890.90,375.52 2885.94,375.20"/>
    </edge>
    <edge id=":1827451170_1" function="internal">
        <lane id=":1827451170_1_0" index="0" disallow="tram rail_urban rail rail_electric rail_fast ship container cable_car subway aircraft wheelchair scooter drone" speed="13.89" length="4.97" shape="2886.14,372.01 2891.10,372.32"/>
    </edge>
    <edge id=":1827451170_2" function="internal">
        <lane id=":1827451170_2_0" index="0" allow="rail" speed="36.11" length="16.55" shape="2882.04,378.76 2895.25,368.79"/>
    </edge>
    <edge id=":1838851896_0" function="internal">
        <lane id=":1838851896_0_0" index="0" allow="bicycle" speed="2.89" length="2.92" width="2.00" shape="4004.41,206.66 4004.74,207.50 4004.65,208.05 4004.15,208.32 4003.25,208.29"/>
    </edge>
    <edge id=":3053478913_0" function="internal">
        <lane id=":3053478913_0_0" index="0" disallow="tram rail_urban rail rail_electric rail_fast ship container cable_car subway aircraft wheelchair scooter drone" speed="3.65" length="4.67" shape="3185.25,393.72 3186.38,394.60 3186.73,395.43 3186.27,396.20 3185.02,396.91"/>
    </edge>
    <edge id=":4073201745_0" function="internal">
        <lane id=":4073201745_0_0" index="0" disallow="tram rail_urban rail rail_electric rail_fast ship container cable_car subway aircraft wheelchair scooter drone" speed="13.89" length="10.25" shape="2885.74,375.19 2875.52,374.52"/>
    </edge>
    <edge id=":4073201745_1" function="internal">
        <lane id=":4073201745_1_0" index="0" allow="rail" speed="36.11" length="16.50" shape="2889.83,368.44 2876.67,378.39"/>
    </edge>
    <edge id=":4073201745_2" function="internal">
        <lane id=":4073201745_2_0" index="0" disallow="tram rail_urban rail rail_electric rail_fast ship container cable_car subway aircraft wheelchair scooter drone" speed="13.89" length="10.23" shape="2875.73,371.32 2885.94,372.00"/>
    </edge>
    <edge id=":5363327534_0" function="internal">
        <lane id=":5363327534_0_0" index="0" disallow="tram rail_urban rail rail_electric rail_fast ship container cable_car subway aircraft wheelchair scooter drone" speed="3.65" length="4.67" shape="2979.56,608.36 2978.36,609.16 2977.47,609.22 2976.89,608.54 2976.61,607.12"/>
    </edge>
    <edge id=":592495372_0" function="internal">
        <lane id=":592495372_0_0" index="0" disallow="tram rail_urban rail rail_electric rail_fast ship container cable_car subway aircraft wheelchair scooter drone" speed="13.89" length="12.07" shape="2909.04,376.70 2897.00,375.91"/>
    </edge>
    <edge id=":592495372_1" function="internal">
        <lane id=":592495372_1_0" index="0" disallow="tram rail_urban rail rail_electric rail_fast ship container cable_car subway aircraft wheelchair scooter drone" speed="3.65" length="1.44" shape="2909.04,376.70 2907.90,375.82"/>
    </edge>
    <edge id=":592495372_6" function="internal">
        <lane id=":592495372_6_0" index="0" disallow="tram rail_urban rail rail_electric rail_fast ship container cable_car subway aircraft wheelchair scooter drone" speed="3.65" length="3.23" shape="2907.90,375.82 2907.56,374.99 2908.01,374.22 2909.27,373.51"/>
    </edge>
    <edge id=":592495372_2" function="internal">
        <lane id=":592495372_2_0" index="0" disallow="tram rail_urban rail rail_electric rail_fast ship container cable_car subway aircraft wheelchair scooter drone" speed="13.89" length="12.09" shape="2897.21,372.71 2909.27,373.51"/>
    </edge>
    <edge id=":592495372_3" function="internal">
        <lane id=":592495372_3_0" index="0" disallow="tram rail_urban rail rail_electric rail_fast ship container cable_car subway aircraft wheelchair scooter drone" speed="3.65" length="1.44" shape="2897.21,372.71 2898.35,373.59"/>
    </edge>
    <edge id=":592495372_7" function="internal">
        <lane id=":592495372_7_0" index="0" disallow="tram rail_urban rail rail_electric rail_fast ship container cable_car subway aircraft wheelchair scooter drone" speed="3.65" length="3.23" shape="2898.35,373.59 2898.70,374.41 2898.25,375.19 2897.00,375.91"/>
    </edge>
    <edge id=":592495372_4" function="internal">
        <lane id=":592495372_4_0" index="0" disallow="tram rail_urban rail rail_electric rail_fast ship container cable_car subway aircraft wheelchair scooter drone" speed="5.54" length="9.44" shape="2899.43,381.81 2901.09,379.41 2901.24,377.62 2899.88,376.45 2897.00,375.91"/>
    </edge>
    <edge id=":592495372_5" function="internal">
        <lane id=":592495372_5_0" index="0" disallow="tram rail_urban rail rail_electric rail_fast ship container cable_car subway aircraft wheelchair scooter drone" speed="10.70" length="13.05" shape="2899.43,381.81 2902.86,378.12 2905.65,375.50 2907.78,373.97 2909.27,373.51"/>
    </edge>
    <edge id=":599912515_0" function="internal">
        <lane id=":599912515_0_0" index="0" disallow="tram rail_urban rail rail_electric rail_fast ship container cable_car subway aircraft wheelchair scooter drone" speed="3.65" length="4.67" shape="2770.69,354.08 2769.79,352.96 2769.64,352.07 2770.27,351.43 2771.65,351.03"/>
    </edge>
    <edge id=":9654265241_0" function="internal">
        <lane id=":9654265241_0_0" index="0" disallow="tram rail_urban rail rail_electric rail_fast ship container cable_car subway aircraft wheelchair scooter drone" speed="13.89" length="5.68" shape="2891.79,390.35 2892.14,388.75 2892.07,387.60 2891.79,386.44 2891.52,384.76"/>
    </edge>
    <edge id=":9654265241_1" function="internal">
        <lane id=":9654265241_1_0" index="0" disallow="tram rail_urban rail rail_electric rail_fast ship container cable_car subway aircraft wheelchair scooter drone" speed="12.97" length="5.70" shape="2891.79,390.35 2892.45,388.86 2893.21,388.00 2894.18,387.27 2895.44,386.13"/>
    </edge>

    <edge id="-1264851801" from="3053478913" to="11338878335" priority="11" type="highway.secondary" shape="3185.13,395.32 3078.18,387.63 2930.16,376.61 2921.95,375.99">
        <lane id="-1264851801_0" index="0" disallow="tram rail_urban rail rail_electric rail_fast ship container cable_car subway aircraft wheelchair scooter drone" speed="13.89" length="260.07" shape="3185.02,396.91 3078.06,389.23 2930.04,378.20 2925.64,377.87"/>
        <param key="ref" value="D 20"/>
    </edge>
    <edge id="-197560590" from="11338878335" to="1838851896" priority="1" type="highway.cycleway" shape="2921.95,375.99 2923.17,368.98 2926.44,358.58 2931.01,351.23 2936.07,347.98 2941.76,346.27 2957.43,350.24 3058.23,376.59 3073.32,380.59 3078.20,382.11 3186.04,388.83 3262.93,393.64 3286.38,392.35 3291.12,388.70 3308.83,386.15 3361.27,375.18 3536.06,327.93 3573.73,317.67 3606.78,306.40 3626.53,294.64 3631.43,292.43 3635.45,296.31 3661.93,302.76 3683.22,297.44 3701.75,289.14 3717.34,276.69 3739.70,258.07 3747.65,252.48 3768.43,239.58 3768.98,237.40 3769.49,236.46 3770.05,235.80 3770.69,235.23 3774.64,232.65 3796.65,221.35 3815.56,213.80 3834.31,207.82 3852.90,203.28 3859.24,201.85 3865.54,203.61 3912.76,198.10 3916.10,197.70 3943.50,195.46 3950.90,194.74 3961.41,193.99 3981.41,191.49 4003.83,207.47">
        <lane id="-197560590_0" index="0" allow="bicycle" speed="5.56" length="1155.48" width="2.00" shape="2921.81,370.98 2922.20,368.75 2925.52,358.16 2930.28,350.51 2935.65,347.06 2941.74,345.24 2957.68,349.27 3058.49,375.62 3073.60,379.63 3078.38,381.12 3186.10,387.84 3262.93,392.64 3286.02,391.37 3290.71,387.75 3308.66,385.16 3361.04,374.21 3535.80,326.96 3573.43,316.72 3606.36,305.48 3626.06,293.75 3631.64,291.24 3635.95,295.41 3661.93,301.73 3682.89,296.49 3701.23,288.28 3716.71,275.92 3739.09,257.28 3747.10,251.65 3767.56,238.94 3768.05,237.04 3768.65,235.89 3769.33,235.10 3770.08,234.43 3774.13,231.79 3796.24,220.44 3815.22,212.86 3834.03,206.85 3852.67,202.30 3859.27,200.82 3865.62,202.59 3912.64,197.11 3916.01,196.71 3943.41,194.46 3950.81,193.75 3961.32,193.00 3981.67,190.44 4004.41,206.66"/>
    </edge>
    <edge id="-47028023" from="11338878335" to="592495372" priority="11" type="highway.secondary">
        <lane id="-47028023_0" index="0" disallow="tram rail_urban rail rail_electric rail_fast ship container cable_car subway aircraft wheelchair scooter drone" speed="13.89" length="1.75" shape="2910.79,376.82 2909.04,376.70"/>
        <param key="ref" value="D 20"/>
    </edge>
    <edge id="-555957413" from="11338878334" to="5363327534" priority="10" type="highway.tertiary" shape="2889.96,396.14 2888.55,400.58 2886.87,404.79 2885.56,409.70 2884.54,414.79 2882.94,424.74 2881.36,441.45 2882.28,461.59 2884.63,479.01 2890.16,492.97 2900.86,509.10 2919.98,532.76 2934.82,547.35 2937.93,550.48 2967.39,580.16 2973.54,587.07 2976.47,591.71 2978.66,595.59 2980.50,600.74 2979.73,603.85 2978.09,607.74">
        <lane id="-555957413_0" index="0" disallow="tram rail_urban rail rail_electric rail_fast ship container cable_car subway aircraft wheelchair scooter drone" speed="13.89" length="248.80" shape="2891.67,396.01 2890.05,401.12 2888.39,405.29 2887.12,410.07 2886.11,415.08 2884.53,424.94 2882.97,441.49 2883.87,461.45 2886.19,478.61 2891.59,492.23 2902.15,508.15 2921.16,531.68 2935.94,546.21 2939.06,549.35 2968.56,579.07 2974.82,586.10 2977.84,590.89 2980.12,594.92 2982.17,600.66 2981.25,604.36 2979.56,608.36"/>
    </edge>
    <edge id="-957132467#0" from="4073201745" to="599912515" priority="11" type="highway.secondary" shape="2883.25,373.43 2871.83,372.67 2827.84,369.32 2821.71,368.38 2810.32,365.67 2794.15,359.80 2771.17,352.55">
        <lane id="-957132467#0_0" index="0" disallow="tram rail_urban rail rail_electric rail_fast ship container cable_car subway aircraft wheelchair scooter drone" speed="13.89" length="107.51" shape="2875.52,374.52 2871.72,374.26 2827.66,370.91 2821.40,369.95 2809.86,367.21 2793.64,361.31 2770.69,354.08"/>
        <param key="ref" value="D 20"/>
    </edge>
    <edge id="-957132467#1" from="1827451170" to="4073201745" priority="11" type="highway.secondary">
        <lane id="-957132467#1_0" index="0" disallow="tram rail_urban rail rail_electric rail_fast ship container cable_car subway aircraft wheelchair scooter drone" speed="13.89" length="0.20" shape="2885.94,375.20 2885.74,375.19"/>
        <param key="ref" value="D 20"/>
    </edge>
    <edge id="-957132467#2" from="11338878336" to="1827451170" priority="11" type="highway.secondary">
        <lane id="-957132467#2_0" index="0" disallow="tram rail_urban rail rail_electric rail_fast ship container cable_car subway aircraft wheelchair scooter drone" speed="13.89" length="0.20" shape="2891.10,375.53 2890.90,375.52"/>
        <param key="ref" value="D 20"/>
    </edge>
    <edge id="-957132494" from="592495372" to="11338878336" priority="11" type="highway.secondary">
        <lane id="-957132494_0" index="0" disallow="tram rail_urban rail rail_electric rail_fast ship container cable_car subway aircraft wheelchair scooter drone" speed="13.89" length="1.34" shape="2897.00,375.91 2895.66,375.82"/>
        <param key="ref" value="D 20"/>
    </edge>
    <edge id="1050577594" from="11338878335" to="11338878334" priority="10" type="highway.tertiary" spreadType="center" shape="2921.95,375.99 2908.84,381.73 2904.84,383.78 2901.14,386.27 2896.95,390.13 2889.96,396.14">
        <lane id="1050577594_0" index="0" disallow="tram rail_urban rail rail_electric rail_fast ship container cable_car subway aircraft wheelchair scooter drone" speed="22.22" length="19.58" shape="2911.44,380.59 2908.84,381.73 2904.84,383.78 2901.14,386.27 2896.95,390.13 2895.37,391.49"/>
    </edge>
    <edge id="1222539261" from="11338878334" to="9654265241" priority="10" type="highway.tertiary" spreadType="center">
        <lane id="1222539261_0" index="0" disallow="tram rail_urban rail rail_electric rail_fast ship container cable_car subway aircraft wheelchair scooter drone" speed="13.89" length="0.20" shape="2891.73,390.54 2891.79,390.35"/>
    </edge>
    <edge id="1264851801" from="11338878335" to="3053478913" priority="11" type="highway.secondary" shape="2921.95,375.99 2930.16,376.61 3078.18,387.63 3185.13,395.32">
        <lane id="1264851801_0" index="0" disallow="tram rail_urban rail rail_electric rail_fast ship container cable_car subway aircraft wheelchair scooter drone" speed="13.89" length="260.06" shape="2925.88,374.68 2930.28,375.01 3078.30,386.04 3185.25,393.72"/>
        <param key="ref" value="D 20"/>
    </edge>
    <edge id="197560590" from="1838851896" to="11338878335" priority="1" type="highway.cycleway" shape="4003.83,207.47 3981.41,191.49 3961.41,193.99 3950.90,194.74 3943.50,195.46 3916.10,197.70 3912.76,198.10 3865.54,203.61 3859.24,201.85 3852.90,203.28 3834.31,207.82 3815.56,213.80 3796.65,221.35 3774.64,232.65 3770.69,235.23 3770.05,235.80 3769.49,236.46 3768.98,237.40 3768.43,239.58 3747.65,252.48 3739.70,258.07 3717.34,276.69 3701.75,289.14 3683.22,297.44 3661.93,302.76 3635.45,296.31 3631.43,292.43 3626.53,294.64 3606.78,306.40 3573.73,317.67 3536.06,327.93 3361.27,375.18 3308.83,386.15 3291.12,388.70 3286.38,392.35 3262.93,393.64 3186.04,388.83 3078.20,382.11 3073.32,380.59 3058.23,376.59 2957.43,350.24 2941.76,346.27 2936.07,347.98 2931.01,351.23 2926.44,358.58 2923.17,368.98 2921.95,375.99">
        <lane id="197560590_0" index="0" allow="bicycle" speed="5.56" length="1151.12" width="2.00" shape="4003.25,208.29 3981.14,192.53 3961.51,194.99 3950.98,195.74 3943.59,196.45 3916.20,198.70 3912.87,199.09 3865.46,204.62 3859.21,202.88 3853.13,204.25 3834.58,208.78 3815.90,214.74 3797.07,222.26 3775.14,233.52 3771.30,236.03 3770.76,236.50 3770.32,237.02 3769.92,237.76 3769.30,240.22 3748.20,253.32 3740.30,258.87 3717.98,277.47 3702.28,290.00 3683.55,298.39 3661.93,303.79 3634.95,297.22 3631.22,293.62 3626.99,295.53 3607.20,307.31 3574.02,318.63 3536.32,328.89 3361.51,376.16 3309.01,387.13 3291.52,389.65 3286.75,393.33 3262.93,394.65 3185.98,389.83 3078.02,383.10 3073.04,381.55 3057.98,377.56 2957.18,351.21 2941.78,347.31 2936.50,348.89 2931.74,351.95 2927.35,359.00 2924.14,369.22 2923.78,371.33"/>
    </edge>
    <edge id="405094929#0" from="9099126120" to="1827451170" priority="20" type="railway.rail" spreadType="center" shape="3.43,2569.10 10.84,2549.48 19.70,2526.84 29.28,2502.41 39.13,2480.25 51.17,2455.85 63.38,2433.05 77.90,2407.19 90.21,2386.23 107.42,2359.47 133.79,2320.44 157.50,2287.63 182.40,2252.13 231.16,2182.84 328.84,2045.06 466.55,1851.73 549.55,1736.06 580.42,1693.04 606.79,1656.47 621.58,1636.86 636.36,1617.65 652.59,1597.54 673.06,1573.66 695.39,1549.05 715.61,1528.47 740.76,1504.84 758.15,1489.52 782.77,1468.78 805.86,1450.35 830.61,1432.12 866.27,1408.16 887.97,1393.86 911.29,1379.77 931.10,1368.45 950.70,1357.90 975.74,1344.97 998.57,1334.33 1022.50,1323.73 1048.12,1313.51 1075.01,1303.44 1127.88,1285.74 1394.49,1202.96 1466.34,1180.44 1541.38,1156.91 1687.48,1111.26 1739.68,1094.98 1794.05,1076.79 1832.40,1062.94 1880.74,1044.06 1906.58,1033.64 1930.49,1023.55 1962.19,1009.71 1993.07,995.62 2017.45,983.75 2040.60,972.27 2066.43,958.69 2093.56,944.30 2118.63,930.30 2142.66,916.41 2168.02,901.39 2193.10,886.23 2218.53,870.14 2243.39,854.09 2267.93,837.39 2291.46,821.00 2335.58,788.85 2380.28,755.62 2469.30,688.97 2551.29,626.98 2635.76,563.91 2720.17,500.74 2888.66,373.77">
        <lane id="405094929#0_0" index="0" allow="rail" speed="36.11" length="3745.32" shape="3.43,2569.10 10.84,2549.48 19.70,2526.84 29.28,2502.41 39.13,2480.25 51.17,2455.85 63.38,2433.05 77.90,2407.19 90.21,2386.23 107.42,2359.47 133.79,2320.44 157.50,2287.63 182.40,2252.13 231.16,2182.84 328.84,2045.06 466.55,1851.73 549.55,1736.06 580.42,1693.04 606.79,1656.47 621.58,1636.86 636.36,1617.65 652.59,1597.54 673.06,1573.66 695.39,1549.05 715.61,1528.47 740.76,1504.84 758.15,1489.52 782.77,1468.78 805.86,1450.35 830.61,1432.12 866.27,1408.16 887.97,1393.86 911.29,1379.77 931.10,1368.45 950.70,1357.90 975.74,1344.97 998.57,1334.33 1022.50,1323.73 1048.12,1313.51 1075.01,1303.44 1127.88,1285.74 1394.49,1202.96 1466.34,1180.44 1541.38,1156.91 1687.48,1111.26 1739.68,1094.98 1794.05,1076.79 1832.40,1062.94 1880.74,1044.06 1906.58,1033.64 1930.49,1023.55 1962.19,1009.71 1993.07,995.62 2017.45,983.75 2040.60,972.27 2066.43,958.69 2093.56,944.30 2118.63,930.30 2142.66,916.41 2168.02,901.39 2193.10,886.23 2218.53,870.14 2243.39,854.09 2267.93,837.39 2291.46,821.00 2335.58,788.85 2380.28,755.62 2469.30,688.97 2551.29,626.98 2635.76,563.91 2720.17,500.74 2882.04,378.76"/>
        <param key="railway:track_ref" value="2"/>
    </edge>
    <edge id="405094929#1" from="1827451170" to="4073215047" priority="20" type="railway.rail" spreadType="center" shape="2888.66,373.77 2957.62,321.61 3129.23,191.56 3167.50,162.94 3209.54,131.28 3290.20,71.27 3318.25,50.73 3347.25,31.26 3369.76,17.20 3393.16,2.95">
        <lane id="405094929#1_0" index="0" allow="rail" speed="36.11" length="618.10" shape="2895.25,368.79 2957.62,321.61 3129.23,191.56 3167.50,162.94 3209.54,131.28 3290.20,71.27 3318.25,50.73 3347.25,31.26 3369.76,17.20 3393.16,2.95"/>
        <param key="railway:track_ref" value="2"/>
    </edge>
    <edge id="46350965" from="9654265241" to="11338878336" priority="10" type="highway.tertiary" spreadType="center" shape="2891.97,389.78 2891.40,383.45 2890.22,373.87">
        <lane id="46350965_0" index="0" disallow="tram rail_urban rail rail_electric rail_fast ship container cable_car subway aircraft wheelchair scooter drone" speed="13.89" length="4.10" shape="2891.52,384.76 2891.40,383.45 2891.06,380.69"/>
    </edge>
    <edge id="46350966" from="9654265241" to="592495372" priority="10" type="highway.tertiary" spreadType="center" shape="2891.97,389.78 2897.66,383.79 2905.61,374.86">
        <lane id="46350966_0" index="0" disallow="tram rail_urban rail rail_electric rail_fast ship container cable_car subway aircraft wheelchair scooter drone" speed="13.89" length="5.87" shape="2895.44,386.13 2897.66,383.79 2899.43,381.81"/>
    </edge>
    <edge id="47028023" from="592495372" to="11338878335" priority="11" type="highway.secondary">
        <lane id="47028023_0" index="0" disallow="tram rail_urban rail rail_electric rail_fast ship container cable_car subway aircraft wheelchair scooter drone" speed="13.89" length="1.75" shape="2909.27,373.51 2911.01,373.63"/>
        <param key="ref" value="D 20"/>
    </edge>
    <edge id="555957413" from="5363327534" to="11338878334" priority="10" type="highway.tertiary" shape="2978.09,607.74 2979.73,603.85 2980.50,600.74 2978.66,595.59 2976.47,591.71 2973.54,587.07 2967.39,580.16 2937.93,550.48 2934.82,547.35 2919.98,532.76 2900.86,509.10 2890.16,492.97 2884.63,479.01 2882.28,461.59 2881.36,441.45 2882.94,424.74 2884.54,414.79 2885.56,409.70 2886.87,404.79 2888.55,400.58 2889.96,396.14">