<?xml version="1.0" encoding="UTF-8"?>

<!-- generated on 2024-09-03 01:36:55 by Eclipse SUMO netconvert Version 1.20.0
<configuration xmlns:xsi="http://www.w3.org/2001/XMLSchema-instance" xsi:noNamespaceSchemaLocation="http://sumo.dlr.de/xsd/netconvertConfiguration.xsd">

    <input>
        <osm-files value="train_files/roundabout/easy/osm_files/map(40).osm"/>
    </input>

    <output>
        <output-file value="train_files/roundabout/easy/outputs/map(40)_dict/map(40)/map(40).net.xml"/>
    </output>

    <projection>
        <proj.utm value="true"/>
    </projection>

    <building_defaults>
        <default.junctions.keep-clear value="false"/>
    </building_defaults>

</configuration>
-->

<net version="1.20" junctionCornerDetail="5" limitTurnSpeed="5.50" xmlns:xsi="http://www.w3.org/2001/XMLSchema-instance" xsi:noNamespaceSchemaLocation="http://sumo.dlr.de/xsd/net_file.xsd">

    <location netOffset="-498017.07,-5408596.43" convBoundary="0.00,0.00,3366.05,3596.79" origBoundary="2.972973,48.824310,3.020046,48.862702" projParameter="+proj=utm +zone=31 +ellps=WGS84 +datum=WGS84 +units=m +no_defs"/>

    <type id="highway.primary" priority="12" numLanes="2" speed="27.78" disallow="tram rail_urban rail rail_electric rail_fast ship container cable_car subway aircraft wheelchair scooter drone" oneway="0"/>
    <type id="highway.secondary" priority="11" numLanes="1" speed="27.78" disallow="tram rail_urban rail rail_electric rail_fast ship container cable_car subway aircraft wheelchair scooter drone" oneway="0"/>
    <type id="highway.track" priority="1" numLanes="1" speed="5.56" allow="pedestrian motorcycle moped bicycle" oneway="0"/>
    <type id="highway.unclassified" priority="4" numLanes="1" speed="13.89" disallow="tram rail_urban rail rail_electric rail_fast ship container cable_car subway aircraft wheelchair scooter drone" oneway="0"/>

    <edge id=":1227093745_0" function="internal">
        <lane id=":1227093745_0_0" index="0" disallow="tram rail_urban rail rail_electric rail_fast ship container cable_car subway aircraft wheelchair scooter drone" speed="3.65" length="4.67" shape="1232.62,317.39 1233.88,316.69 1234.77,316.70 1235.30,317.42 1235.46,318.86"/>
    </edge>
    <edge id=":1244769656_0" function="internal">
        <lane id=":1244769656_0_0" index="0" disallow="tram rail_urban rail rail_electric rail_fast ship container cable_car subway aircraft wheelchair scooter drone" speed="3.65" length="4.67" shape="1344.68,3596.89 1343.80,3598.04 1342.98,3598.38 1342.21,3597.94 1341.48,3596.69"/>
    </edge>
    <edge id=":288046224_0" function="internal">
        <lane id=":288046224_0_0" index="0" disallow="tram rail_urban rail rail_electric rail_fast ship container cable_car subway aircraft wheelchair scooter drone" speed="27.78" length="0.22" shape="1087.51,730.60 1087.50,730.67 1087.49,730.71 1087.49,730.75 1087.49,730.82"/>
    </edge>
    <edge id=":288046224_1" function="internal">
        <lane id=":288046224_1_0" index="0" disallow="tram rail_urban rail rail_electric rail_fast ship container cable_car subway aircraft wheelchair scooter drone" speed="27.78" length="0.10" shape="1084.29,730.65 1084.30,730.55"/>
    </edge>
    <edge id=":3510894377_0" function="internal">
        <lane id=":3510894377_0_0" index="0" disallow="tram rail_urban rail rail_electric rail_fast ship container cable_car subway aircraft wheelchair scooter drone" speed="3.65" length="4.67" shape="3365.64,-1.55 3367.01,-1.08 3367.60,-0.41 3367.42,0.46 3366.47,1.55"/>
    </edge>
    <edge id=":4354716246_0" function="internal">
        <lane id=":4354716246_0_0" index="0" allow="pedestrian motorcycle moped bicycle" speed="3.65" length="4.67" shape="1.49,1778.68 0.32,1779.51 -0.57,1779.60 -1.18,1778.94 -1.49,1777.54"/>
    </edge>
    <edge id=":4867073894_0" function="internal">
        <lane id=":4867073894_0_0" index="0" allow="pedestrian motorcycle moped bicycle" speed="5.94" length="9.27" shape="1078.44,687.86 1076.21,686.14 1074.24,685.70 1072.54,686.53 1071.11,688.63"/>
    </edge>
    <edge id=":4867073894_1" function="internal">
        <lane id=":4867073894_1_0" index="0" disallow="tram rail_urban rail rail_electric rail_fast ship container cable_car subway aircraft wheelchair scooter drone" speed="14.75" length="13.25" shape="1078.44,687.86 1075.62,684.96 1073.94,682.67 1072.93,680.03 1072.13,676.08"/>
        <lane id=":4867073894_1_1" index="1" disallow="tram rail_urban rail rail_electric rail_fast ship container cable_car subway aircraft wheelchair scooter drone" speed="14.22" length="13.25" shape="1081.42,686.31 1078.76,683.64 1077.10,681.57 1076.07,679.18 1075.29,675.53"/>
    </edge>
    <edge id=":4867073894_3" function="internal">
        <lane id=":4867073894_3_0" index="0" allow="pedestrian motorcycle moped bicycle" speed="13.98" length="12.22" shape="1068.22,687.25 1069.88,684.42 1071.36,682.16 1072.25,679.65 1072.13,676.08"/>
    </edge>
    <edge id=":5633452597_0" function="internal">
        <lane id=":5633452597_0_0" index="0" disallow="tram rail_urban rail rail_electric rail_fast ship container cable_car subway aircraft wheelchair scooter drone" speed="8.19" length="5.92" shape="1086.61,651.26 1088.07,650.39 1088.87,649.50 1089.37,648.34 1089.92,646.67"/>
    </edge>
    <edge id=":5633452597_1" function="internal">
        <lane id=":5633452597_1_0" index="0" disallow="tram rail_urban rail rail_electric rail_fast ship container cable_car subway aircraft wheelchair scooter drone" speed="24.91" length="5.80" shape="1086.61,651.26 1088.31,650.56 1089.57,650.33 1090.87,650.27 1092.74,650.11"/>
        <lane id=":5633452597_1_1" index="1" disallow="tram rail_urban rail rail_electric rail_fast ship container cable_car subway aircraft wheelchair scooter drone" speed="22.84" length="5.80" shape="1088.02,654.13 1089.45,653.56 1090.51,653.41 1091.61,653.40 1093.18,653.27"/>
    </edge>
    <edge id=":5633452598_0" function="internal">
        <lane id=":5633452598_0_0" index="0" disallow="tram rail_urban rail rail_electric rail_fast ship container cable_car subway aircraft wheelchair scooter drone" speed="27.78" length="14.33" shape="1069.86,657.57 1073.87,656.36 1076.65,655.60 1079.36,654.67 1083.16,652.95"/>
        <lane id=":5633452598_0_1" index="1" disallow="tram rail_urban rail rail_electric rail_fast ship container cable_car subway aircraft wheelchair scooter drone" speed="27.78" length="14.33" shape="1070.85,660.61 1074.99,659.36 1077.85,658.57 1080.65,657.60 1084.57,655.82"/>
    </edge>
    <edge id=":5633452598_2" function="internal">
        <lane id=":5633452598_2_0" index="0" disallow="tram rail_urban rail rail_electric rail_fast ship container cable_car subway aircraft wheelchair scooter drone" speed="15.30" length="14.92" shape="1073.28,664.14 1075.35,660.07 1077.01,657.30 1079.28,655.16 1083.16,652.95"/>
        <lane id=":5633452598_2_1" index="1" disallow="tram rail_urban rail rail_electric rail_fast ship container cable_car subway aircraft wheelchair scooter drone" speed="10.52" length="14.92" shape="1075.84,666.56 1076.65,663.34 1078.38,660.47 1081.02,657.97 1084.57,655.82"/>
    </edge>
    <edge id=":5633452601_0" function="internal">
        <lane id=":5633452601_0_0" index="0" disallow="tram rail_urban rail rail_electric rail_fast ship container cable_car subway aircraft wheelchair scooter drone" speed="7.29" length="6.19" shape="1072.10,675.88 1071.33,675.05 1069.72,674.14 1067.98,673.35 1066.79,672.83"/>
        <lane id=":5633452601_0_1" index="1" disallow="tram rail_urban rail rail_electric rail_fast ship container cable_car subway aircraft wheelchair scooter drone" speed="7.93" length="7.42" shape="1072.10,675.88 1071.57,673.84 1070.73,672.17 1069.59,670.87 1068.15,669.93"/>
    </edge>
    <edge id=":5633452601_2" function="internal">
        <lane id=":5633452601_2_0" index="0" disallow="tram rail_urban rail rail_electric rail_fast ship container cable_car subway aircraft wheelchair scooter drone" speed="27.78" length="8.04" shape="1072.10,675.88 1071.80,673.40 1071.88,671.69 1072.18,669.97 1072.53,667.47"/>
        <lane id=":5633452601_2_1" index="1" disallow="tram rail_urban rail rail_electric rail_fast ship container cable_car subway aircraft wheelchair scooter drone" speed="27.78" length="8.04" shape="1075.25,675.34 1075.00,673.12 1075.09,671.58 1075.38,670.04 1075.71,667.80"/>
    </edge>
    <edge id=":5633452604_0" function="internal">
        <lane id=":5633452604_0_0" index="0" disallow="tram rail_urban rail rail_electric rail_fast ship container cable_car subway aircraft wheelchair scooter drone" speed="11.29" length="5.94" shape="1083.67,695.96 1083.26,694.24 1082.95,693.03 1082.40,691.97 1081.26,690.67"/>
    </edge>
    <edge id=":5633452604_1" function="internal">
        <lane id=":5633452604_1_0" index="0" disallow="tram rail_urban rail rail_electric rail_fast ship container cable_car subway aircraft wheelchair scooter drone" speed="26.32" length="5.86" shape="1086.89,693.35 1085.15,692.64 1083.86,692.31 1082.68,691.82 1081.26,690.67"/>
        <lane id=":5633452604_1_1" index="1" disallow="tram rail_urban rail rail_electric rail_fast ship container cable_car subway aircraft wheelchair scooter drone" speed="9.21" length="5.86" shape="1088.36,690.43 1086.77,690.21 1085.66,689.96 1084.69,689.45 1083.52,688.41"/>
    </edge>
    <edge id=":5633452607_0" function="internal">
        <lane id=":5633452607_0_0" index="0" disallow="tram rail_urban rail rail_electric rail_fast ship container cable_car subway aircraft wheelchair scooter drone" speed="16.36" length="10.81" shape="1102.59,692.66 1099.82,694.28 1098.09,695.75 1096.71,697.54 1095.00,700.09"/>
    </edge>
    <edge id=":5633452607_1" function="internal">
        <lane id=":5633452607_1_0" index="0" disallow="tram rail_urban rail rail_electric rail_fast ship container cable_car subway aircraft wheelchair scooter drone" speed="13.07" length="10.77" shape="1102.59,692.66 1099.61,694.09 1097.37,694.69 1095.03,694.66 1091.73,694.19"/>
        <lane id=":5633452607_1_1" index="1" disallow="tram rail_urban rail rail_electric rail_fast ship container cable_car subway aircraft wheelchair scooter drone" speed="12.47" length="10.77" shape="1101.11,689.82 1098.39,691.07 1096.35,691.50 1094.21,691.35 1091.22,690.87"/>
    </edge>
    <edge id=":5633452610_0" function="internal">
        <lane id=":5633452610_0_0" index="0" disallow="tram rail_urban rail rail_electric rail_fast ship container cable_car subway aircraft wheelchair scooter drone" speed="16.45" length="11.24" shape="1122.05,674.24 1119.42,675.94 1117.50,677.05 1115.92,678.45 1114.34,681.03"/>
        <lane id=":5633452610_0_1" index="1" disallow="tram rail_urban rail rail_electric rail_fast ship container cable_car subway aircraft wheelchair scooter drone" speed="17.58" length="11.24" shape="1120.15,671.67 1117.16,673.65 1115.01,674.97 1113.25,676.64 1111.47,679.62"/>
    </edge>
    <edge id=":5633452610_2" function="internal">
        <lane id=":5633452610_2_0" index="0" disallow="tram rail_urban rail rail_electric rail_fast ship container cable_car subway aircraft wheelchair scooter drone" speed="13.39" length="11.40" shape="1116.05,669.58 1116.58,673.04 1116.54,675.49 1115.83,677.85 1114.34,681.03"/>
        <lane id=":5633452610_2_1" index="1" disallow="tram rail_urban rail rail_electric rail_fast ship container cable_car subway aircraft wheelchair scooter drone" speed="12.80" length="11.40" shape="1112.72,669.14 1113.25,672.30 1113.32,674.55 1112.78,676.71 1111.47,679.62"/>
    </edge>
    <edge id=":5633452613_0" function="internal">
        <lane id=":5633452613_0_0" index="0" disallow="tram rail_urban rail rail_electric rail_fast ship container cable_car subway aircraft wheelchair scooter drone" speed="13.11" length="11.12" shape="1101.77,644.89 1102.45,647.90 1103.39,649.99 1104.90,651.86 1107.28,654.21"/>
    </edge>
    <edge id=":5633452613_1" function="internal">
        <lane id=":5633452613_1_0" index="0" disallow="tram rail_urban rail rail_electric rail_fast ship container cable_car subway aircraft wheelchair scooter drone" speed="27.78" length="8.15" shape="1099.73,650.23 1102.08,651.26 1103.77,651.84 1105.34,652.61 1107.28,654.21"/>
        <lane id=":5633452613_1_1" index="1" disallow="tram rail_urban rail rail_electric rail_fast ship container cable_car subway aircraft wheelchair scooter drone" speed="27.78" length="8.15" shape="1098.26,653.06 1100.36,653.97 1101.89,654.45 1103.31,655.10 1105.05,656.51"/>
    </edge>
    <edge id=":5633452614_0" function="internal">
        <lane id=":5633452614_0_0" index="0" disallow="tram rail_urban rail rail_electric rail_fast ship container cable_car subway aircraft wheelchair scooter drone" speed="13.33" length="1.85" shape="1100.66,650.96 1099.55,650.13"/>
        <lane id=":5633452614_0_1" index="1" disallow="tram rail_urban rail rail_electric rail_fast ship container cable_car subway aircraft wheelchair scooter drone" speed="17.23" length="1.85" shape="1100.10,654.11 1098.08,652.97"/>
    </edge>
    <edge id=":5713838974_0" function="internal">
        <lane id=":5713838974_0_0" index="0" disallow="tram rail_urban rail rail_electric rail_fast ship container cable_car subway aircraft wheelchair scooter drone" speed="3.65" length="4.67" shape="955.54,657.53 954.31,656.77 953.89,655.98 954.27,655.17 955.44,654.34"/>
    </edge>
    <edge id=":8298133053_0" function="internal">
        <lane id=":8298133053_0_0" index="0" disallow="tram rail_urban rail rail_electric rail_fast ship container cable_car subway aircraft wheelchair scooter drone" speed="3.65" length="4.67" shape="986.22,637.84 984.85,637.39 984.25,636.73 984.42,635.85 985.36,634.76"/>
    </edge>
    <edge id=":8298133054_0" function="internal">
        <lane id=":8298133054_0_0" index="0" disallow="tram rail_urban rail rail_electric rail_fast ship container cable_car subway aircraft wheelchair scooter drone" speed="3.65" length="4.67" shape="1198.15,576.82 1199.51,577.29 1200.10,577.96 1199.92,578.84 1198.97,579.92"/>
    </edge>
    <edge id=":8298133066_0" function="internal">
        <lane id=":8298133066_0_0" index="0" disallow="tram rail_urban rail rail_electric rail_fast ship container cable_car subway aircraft wheelchair scooter drone" speed="27.78" length="20.75" shape="1059.21,669.26 1053.09,666.36 1048.06,664.09 1043.80,662.50 1039.98,661.63"/>
    </edge>
    <edge id=":8298133066_1" function="internal">
        <lane id=":8298133066_1_0" index="0" disallow="tram rail_urban rail rail_electric rail_fast ship container cable_car subway aircraft wheelchair scooter drone" speed="5.57" length="4.87" shape="1060.57,666.36 1057.10,664.39 1056.61,663.67"/>
    </edge>
    <edge id=":8298133066_5" function="internal">
        <lane id=":8298133066_5_0" index="0" disallow="tram rail_urban rail rail_electric rail_fast ship container cable_car subway aircraft wheelchair scooter drone" speed="5.57" length="6.70" shape="1056.61,663.67 1056.10,662.91 1057.59,661.92 1061.56,661.42"/>
    </edge>
    <edge id=":8298133066_2" function="internal">
        <lane id=":8298133066_2_0" index="0" disallow="tram rail_urban rail rail_electric rail_fast ship container cable_car subway aircraft wheelchair scooter drone" speed="27.78" length="21.23" shape="1040.40,658.46 1044.37,658.77 1049.01,658.77 1054.60,658.56 1061.40,658.23"/>
        <lane id=":8298133066_2_1" index="1" disallow="tram rail_urban rail rail_electric rail_fast ship container cable_car subway aircraft wheelchair scooter drone" speed="27.78" length="21.23" shape="1040.40,658.46 1044.39,659.26 1049.09,660.37 1054.73,661.25 1061.56,661.42"/>
    </edge>
    <edge id=":8298133066_4" function="internal">
        <lane id=":8298133066_4_0" index="0" disallow="tram rail_urban rail rail_electric rail_fast ship container cable_car subway aircraft wheelchair scooter drone" speed="3.65" length="1.44" shape="1040.40,658.46 1041.48,659.41"/>
    </edge>
    <edge id=":8298133066_6" function="internal">
        <lane id=":8298133066_6_0" index="0" disallow="tram rail_urban rail rail_electric rail_fast ship container cable_car subway aircraft wheelchair scooter drone" speed="3.65" length="3.23" shape="1041.48,659.41 1041.78,660.25 1041.28,661.00 1039.98,661.63"/>
    </edge>
    <edge id=":8298133067_0" function="internal">
        <lane id=":8298133067_0_0" index="0" disallow="tram rail_urban rail rail_electric rail_fast ship container cable_car subway aircraft wheelchair scooter drone" speed="15.64" length="5.14" shape="1099.10,625.81 1098.85,627.30 1098.85,628.35 1099.02,629.39 1099.31,630.89"/>
    </edge>
    <edge id=":8298133067_1" function="internal">
        <lane id=":8298133067_1_0" index="0" disallow="tram rail_urban rail rail_electric rail_fast ship container cable_car subway aircraft wheelchair scooter drone" speed="3.65" length="1.44" shape="1099.10,625.81 1098.07,626.82"/>
    </edge>
    <edge id=":8298133067_4" function="internal">
        <lane id=":8298133067_4_0" index="0" disallow="tram rail_urban rail rail_electric rail_fast ship container cable_car subway aircraft wheelchair scooter drone" speed="3.65" length="3.23" shape="1098.07,626.82 1097.21,627.05 1096.51,626.50 1095.97,625.16"/>
    </edge>
    <edge id=":8298133067_2" function="internal">
        <lane id=":8298133067_2_0" index="0" disallow="tram rail_urban rail rail_electric rail_fast ship container cable_car subway aircraft wheelchair scooter drone" speed="27.78" length="11.91" shape="1093.34,636.76 1094.30,633.64 1094.88,631.02 1095.36,628.37 1095.97,625.16"/>
    </edge>
    <edge id=":8298133067_3" function="internal">
        <lane id=":8298133067_3_0" index="0" disallow="tram rail_urban rail rail_electric rail_fast ship container cable_car subway aircraft wheelchair scooter drone" speed="5.87" length="8.03" shape="1093.34,636.76 1095.46,631.36 1096.62,629.46"/>
    </edge>
    <edge id=":8298133067_5" function="internal">
        <lane id=":8298133067_5_0" index="0" disallow="tram rail_urban rail rail_electric rail_fast ship container cable_car subway aircraft wheelchair scooter drone" speed="5.87" length="4.94" shape="1096.62,629.46 1097.16,628.58 1098.44,628.42 1099.31,630.89"/>
    </edge>
    <edge id=":8298133068_0" function="internal">
        <lane id=":8298133068_0_0" index="0" disallow="tram rail_urban rail rail_electric rail_fast ship container cable_car subway aircraft wheelchair scooter drone" speed="10.21" length="15.34" shape="1111.90,602.94 1108.08,604.43 1105.11,606.65 1102.99,609.60 1101.72,613.28"/>
    </edge>
    <edge id=":8298133068_1" function="internal">
        <lane id=":8298133068_1_0" index="0" disallow="tram rail_urban rail rail_electric rail_fast ship container cable_car subway aircraft wheelchair scooter drone" speed="13.89" length="19.01" shape="1111.90,602.94 1093.55,607.92"/>
    </edge>
    <edge id=":8298133068_2" function="internal">
        <lane id=":8298133068_2_0" index="0" disallow="tram rail_urban rail rail_electric rail_fast ship container cable_car subway aircraft wheelchair scooter drone" speed="7.39" length="17.06" shape="1111.90,602.94 1106.78,603.60 1103.66,602.35 1102.53,599.18 1103.40,594.09"/>
    </edge>
    <edge id=":8298133068_3" function="internal">
        <lane id=":8298133068_3_0" index="0" disallow="tram rail_urban rail rail_electric rail_fast ship container cable_car subway aircraft wheelchair scooter drone" speed="3.65" length="4.67" shape="1111.90,602.94 1110.54,602.48 1109.94,601.81 1110.13,600.93 1111.08,599.85"/>
    </edge>
    <edge id=":8298133068_4" function="internal">
        <lane id=":8298133068_4_0" index="0" disallow="tram rail_urban rail rail_electric rail_fast ship container cable_car subway aircraft wheelchair scooter drone" speed="5.63" length="9.28" shape="1106.46,595.03 1105.99,597.80 1106.60,599.53 1108.30,600.21 1111.08,599.85"/>
    </edge>
    <edge id=":8298133068_5" function="internal">
        <lane id=":8298133068_5_0" index="0" disallow="tram rail_urban rail rail_electric rail_fast ship container cable_car subway aircraft wheelchair scooter drone" speed="27.78" length="18.86" shape="1106.46,595.03 1105.24,599.21 1103.92,604.11 1102.68,609.04 1101.72,613.28"/>
    </edge>
    <edge id=":8298133068_6" function="internal">
        <lane id=":8298133068_6_0" index="0" disallow="tram rail_urban rail rail_electric rail_fast ship container cable_car subway aircraft wheelchair scooter drone" speed="12.01" length="5.17" shape="1106.46,595.03 1104.47,599.00 1104.00,599.56"/>
    </edge>
    <edge id=":8298133068_7" function="internal">
        <lane id=":8298133068_7_0" index="0" disallow="tram rail_urban rail rail_electric rail_fast ship container cable_car subway aircraft wheelchair scooter drone" speed="3.65" length="1.44" shape="1106.46,595.03 1105.34,595.94"/>
    </edge>
    <edge id=":8298133068_16" function="internal">
        <lane id=":8298133068_16_0" index="0" disallow="tram rail_urban rail rail_electric rail_fast ship container cable_car subway aircraft wheelchair scooter drone" speed="12.01" length="13.57" shape="1104.00,599.56 1101.25,602.87 1097.41,606.04 1093.55,607.92"/>
    </edge>
    <edge id=":8298133068_17" function="internal">
        <lane id=":8298133068_17_0" index="0" disallow="tram rail_urban rail rail_electric rail_fast ship container cable_car subway aircraft wheelchair scooter drone" speed="3.65" length="3.23" shape="1105.34,595.94 1104.46,596.09 1103.81,595.47 1103.40,594.09"/>
    </edge>
    <edge id=":8298133068_8" function="internal">
        <lane id=":8298133068_8_0" index="0" disallow="tram rail_urban rail rail_electric rail_fast ship container cable_car subway aircraft wheelchair scooter drone" speed="11.08" length="15.85" shape="1092.70,604.83 1096.40,603.32 1099.41,601.02 1101.75,597.94 1103.40,594.09"/>
    </edge>
    <edge id=":8298133068_9" function="internal">
        <lane id=":8298133068_9_0" index="0" disallow="tram rail_urban rail rail_electric rail_fast ship container cable_car subway aircraft wheelchair scooter drone" speed="13.89" length="19.05" shape="1092.70,604.83 1111.08,599.85"/>
    </edge>
    <edge id=":8298133068_10" function="internal">
        <lane id=":8298133068_10_0" index="0" disallow="tram rail_urban rail rail_electric rail_fast ship container cable_car subway aircraft wheelchair scooter drone" speed="7.43" length="16.49" shape="1092.70,604.83 1097.56,604.16 1100.68,605.35 1102.06,608.39 1101.72,613.28"/>
    </edge>
    <edge id=":8298133068_11" function="internal">
        <lane id=":8298133068_11_0" index="0" disallow="tram rail_urban rail rail_electric rail_fast ship container cable_car subway aircraft wheelchair scooter drone" speed="3.65" length="4.67" shape="1092.70,604.83 1094.07,605.28 1094.67,605.95 1094.50,606.83 1093.55,607.92"/>
    </edge>
    <edge id=":8298133068_12" function="internal">
        <lane id=":8298133068_12_0" index="0" disallow="tram rail_urban rail rail_electric rail_fast ship container cable_car subway aircraft wheelchair scooter drone" speed="5.72" length="9.19" shape="1098.58,612.63 1098.78,609.90 1098.00,608.20 1096.26,607.54 1093.55,607.92"/>
    </edge>
    <edge id=":8298133068_13" function="internal">
        <lane id=":8298133068_13_0" index="0" disallow="tram rail_urban rail rail_electric rail_fast ship container cable_car subway aircraft wheelchair scooter drone" speed="27.78" length="19.16" shape="1098.58,612.63 1099.56,608.34 1100.82,603.31 1102.17,598.31 1103.40,594.09"/>
    </edge>
    <edge id=":8298133068_14" function="internal">
        <lane id=":8298133068_14_0" index="0" disallow="tram rail_urban rail rail_electric rail_fast ship container cable_car subway aircraft wheelchair scooter drone" speed="11.17" length="5.25" shape="1098.58,612.63 1100.25,608.71 1100.86,607.93"/>
    </edge>
    <edge id=":8298133068_15" function="internal">
        <lane id=":8298133068_15_0" index="0" disallow="tram rail_urban rail rail_electric rail_fast ship container cable_car subway aircraft wheelchair scooter drone" speed="3.65" length="1.44" shape="1098.58,612.63 1099.61,611.62"/>
    </edge>
    <edge id=":8298133068_18" function="internal">
        <lane id=":8298133068_18_0" index="0" disallow="tram rail_urban rail rail_electric rail_fast ship container cable_car subway aircraft wheelchair scooter drone" speed="11.17" length="13.25" shape="1100.86,607.93 1103.27,604.88 1107.08,601.72 1111.08,599.85"/>
    </edge>
    <edge id=":8298133068_19" function="internal">
        <lane id=":8298133068_19_0" index="0" disallow="tram rail_urban rail rail_electric rail_fast ship container cable_car subway aircraft wheelchair scooter drone" speed="3.65" length="3.23" shape="1099.61,611.62 1100.48,611.39 1101.18,611.94 1101.72,613.28"/>
    </edge>
    <edge id=":8298133074_0" function="internal">
        <lane id=":8298133074_0_0" index="0" disallow="tram rail_urban rail rail_electric rail_fast ship container cable_car subway aircraft wheelchair scooter drone" speed="27.78" length="8.09" shape="1167.25,652.05 1165.33,653.60 1164.44,655.25 1163.52,656.82 1161.50,658.15"/>
        <lane id=":8298133074_0_1" index="1" disallow="tram rail_urban rail rail_electric rail_fast ship container cable_car subway aircraft wheelchair scooter drone" speed="27.78" length="8.09" shape="1167.25,652.05 1165.24,653.08 1163.85,653.74 1162.43,654.34 1160.33,655.17"/>
    </edge>
    <edge id=":8298133074_2" function="internal">
        <lane id=":8298133074_2_0" index="0" disallow="tram rail_urban rail rail_electric rail_fast ship container cable_car subway aircraft wheelchair scooter drone" speed="27.78" length="8.01" shape="1157.99,649.16 1160.26,648.85 1161.96,649.35 1163.62,649.76 1165.79,649.21"/>
    </edge>
    <edge id=":8298133075_0" function="internal">
        <lane id=":8298133075_0_0" index="0" disallow="tram rail_urban rail rail_electric rail_fast ship container cable_car subway aircraft wheelchair scooter drone" speed="10.68" length="8.80" shape="1109.69,656.56 1111.66,658.06 1113.37,658.51 1115.29,658.46 1117.93,658.46"/>
        <lane id=":8298133075_0_1" index="1" disallow="tram rail_urban rail rail_electric rail_fast ship container cable_car subway aircraft wheelchair scooter drone" speed="11.29" length="9.88" shape="1109.69,656.56 1111.72,658.70 1113.20,660.23 1114.94,661.19 1117.71,661.65"/>
    </edge>
    <edge id=":8298133075_2" function="internal">
        <lane id=":8298133075_2_0" index="0" disallow="tram rail_urban rail rail_electric rail_fast ship container cable_car subway aircraft wheelchair scooter drone" speed="12.97" length="10.16" shape="1109.69,656.56 1112.00,658.73 1113.52,660.36 1114.53,662.28 1115.27,665.29"/>
        <lane id=":8298133075_2_1" index="1" disallow="tram rail_urban rail rail_electric rail_fast ship container cable_car subway aircraft wheelchair scooter drone" speed="12.36" length="10.16" shape="1107.46,658.85 1109.52,660.84 1110.83,662.36 1111.67,664.14 1112.31,666.88"/>
    </edge>

    <edge id="-1004099202" from="8298133054" to="8298133068" priority="4" type="highway.unclassified">
        <lane id="-1004099202_0" index="0" disallow="tram rail_urban rail rail_electric rail_fast ship container cable_car subway aircraft wheelchair scooter drone" speed="13.89" length="90.06" shape="1198.97,579.92 1111.90,602.94"/>
    </edge>
    <edge id="-262878804" from="288046224" to="1244769656" priority="11" type="highway.secondary" shape="1085.90,730.49 1083.77,770.73 1082.76,810.26 1082.99,849.79 1084.17,998.46 1084.78,1072.74 1086.55,1104.82 1090.68,1132.40 1097.18,1158.99 1104.47,1180.66 1116.88,1208.92 1127.21,1228.84 1141.53,1250.77 1155.26,1267.78 1171.79,1286.22 1241.47,1360.29 1255.57,1377.97 1266.54,1393.60 1277.10,1411.60 1285.02,1427.35 1293.73,1447.17 1300.62,1466.44 1304.95,1482.24 1308.06,1495.04 1311.41,1514.81 1314.16,1537.67 1315.40,1562.25 1313.53,1588.89 1310.72,1608.21 1308.02,1626.12 1303.70,1652.61 1196.56,2308.59 1190.42,2345.96 1186.48,2374.28 1185.48,2387.59 1185.19,2400.86 1186.32,2417.45 1188.47,2431.68 1191.20,2443.03 1195.09,2455.88 1203.79,2477.96 1298.52,2712.24 1344.27,2824.74 1364.84,2877.41 1371.78,2900.73 1375.39,2917.08 1377.68,2929.93 1379.31,2943.03 1383.64,2984.12 1390.63,3054.84 1397.77,3127.52 1398.76,3152.29 1398.17,3171.36 1395.39,3195.30 1392.15,3213.07 1366.75,3333.11 1361.57,3360.64 1357.03,3388.20 1354.87,3408.84 1351.53,3466.10 1350.30,3481.36 1348.23,3514.85 1343.08,3596.79">
        <lane id="-262878804_0" index="0" disallow="tram rail_urban rail rail_electric rail_fast ship container cable_car subway aircraft wheelchair scooter drone" speed="27.78" length="2985.71" shape="1087.49,730.82 1085.36,770.79 1084.36,810.28 1084.59,849.78 1085.77,998.45 1086.38,1072.69 1088.14,1104.66 1092.26,1132.09 1098.72,1158.54 1105.97,1180.08 1118.32,1208.23 1128.59,1228.03 1142.83,1249.82 1156.48,1266.75 1172.97,1285.14 1242.68,1359.24 1256.85,1377.02 1267.89,1392.74 1278.51,1410.83 1286.47,1426.67 1295.22,1446.58 1302.15,1465.96 1306.50,1481.84 1309.63,1494.72 1312.99,1514.58 1315.76,1537.54 1317.00,1562.27 1315.12,1589.06 1312.30,1608.44 1309.61,1626.36 1305.28,1652.86 1198.14,2308.85 1192.00,2346.20 1188.07,2374.45 1187.08,2387.67 1186.79,2400.82 1187.91,2417.28 1190.04,2431.37 1192.74,2442.61 1196.60,2455.35 1205.28,2477.36 1300.00,2711.64 1345.76,2824.15 1366.36,2876.89 1373.33,2900.33 1376.96,2916.77 1379.27,2929.69 1380.90,2942.84 1385.23,2983.96 1392.22,3054.69 1399.37,3127.41 1400.36,3152.28 1399.76,3171.48 1396.97,3195.53 1393.72,3213.38 1368.32,3333.42 1363.15,3360.92 1358.61,3388.41 1356.46,3408.97 1353.12,3466.22 1351.89,3481.47 1349.83,3514.95 1344.68,3596.89"/>
        <param key="ref" value="D 15"/>
    </edge>